aripiprazol
     RDKit          3D

 58 61  0  0  0  0  0  0  0  0999 V2000
   11.4990    6.5030   -1.8350 O   0  0  0  0  0  0  0  0  0  0  0  0
   11.6940    7.2020   -2.8300 C   0  0  0  0  0  0  0  0  0  0  0  0
   12.6410    8.3820   -2.8240 C   0  0  0  0  0  0  0  0  0  0  0  0
   12.1670    9.4870   -3.7540 C   0  0  0  0  0  0  0  0  0  0  0  0
   11.7980    8.9380   -5.1080 C   0  0  0  0  0  0  0  0  0  0  0  0
   11.8830    9.7230   -6.2650 C   0  0  0  0  0  0  0  0  0  0  0  0
   11.4430    9.2180   -7.4970 C   0  0  0  0  0  0  0  0  0  0  0  0
   10.9080    7.9320   -7.5780 C   0  0  0  0  0  0  0  0  0  0  0  0
   10.4510    7.3180   -8.7130 O   0  0  0  0  0  0  0  0  0  0  0  0
    9.8520    6.0330   -8.5690 C   0  0  0  0  0  0  0  0  0  0  0  0
    9.1850    5.6670   -9.8990 C   0  0  0  0  0  0  0  0  0  0  0  0
    9.5600    6.5750  -11.0790 C   0  0  0  0  0  0  0  0  0  0  0  0
    9.9630    5.8010  -12.3370 C   0  0  0  0  0  0  0  0  0  0  0  0
    9.0270    4.6370  -12.5950 N   0  0  0  0  0  0  0  0  0  0  0  0
    7.6870    5.0280  -13.2220 C   0  0  0  0  0  0  0  0  0  0  0  0
    6.7800    3.7880  -13.3760 C   0  0  0  0  0  0  0  0  0  0  0  0
    7.5030    2.6340  -13.9740 N   0  0  0  0  0  0  0  0  0  0  0  0
    6.6800    1.7430  -14.7010 C   0  0  0  0  0  0  0  0  0  0  0  0
    6.8570    1.5690  -16.0870 C   0  0  0  0  0  0  0  0  0  0  0  0
    6.0390    0.7120  -16.8310 C   0  0  0  0  0  0  0  0  0  0  0  0
    5.0200    0.0010  -16.2070 C   0  0  0  0  0  0  0  0  0  0  0  0
    4.8200    0.1350  -14.8330 C   0  0  0  0  0  0  0  0  0  0  0  0
    3.5350   -0.7880  -14.1330 Cl  0  0  0  0  0  0  0  0  0  0  0  0
    5.6430    0.9930  -14.0770 C   0  0  0  0  0  0  0  0  0  0  0  0
    5.4390    1.0800  -12.3430 Cl  0  0  0  0  0  0  0  0  0  0  0  0
    8.8510    2.9080  -14.4900 C   0  0  0  0  0  0  0  0  0  0  0  0
    9.7320    3.5050  -13.3710 C   0  0  0  0  0  0  0  0  0  0  0  0
   10.8050    7.1540   -6.4200 C   0  0  0  0  0  0  0  0  0  0  0  0
   11.2550    7.6520   -5.1960 C   0  0  0  0  0  0  0  0  0  0  0  0
   11.1390    6.8700   -4.0410 N   0  0  0  0  0  0  0  0  0  0  0  0
   12.7073    8.7808   -1.8010 H   0  0  0  0  0  0  0  0  0  0  0  0
   13.6238    8.0352   -3.1759 H   0  0  0  0  0  0  0  0  0  0  0  0
   11.2856    9.9746   -3.3120 H   0  0  0  0  0  0  0  0  0  0  0  0
   12.9862   10.2098   -3.8824 H   0  0  0  0  0  0  0  0  0  0  0  0
   12.2969   10.7405   -6.2069 H   0  0  0  0  0  0  0  0  0  0  0  0
   11.5199    9.8378   -8.4025 H   0  0  0  0  0  0  0  0  0  0  0  0
   10.6225    5.2882   -8.3209 H   0  0  0  0  0  0  0  0  0  0  0  0
    9.1065    6.0485   -7.7603 H   0  0  0  0  0  0  0  0  0  0  0  0
    9.4740    4.6369  -10.1546 H   0  0  0  0  0  0  0  0  0  0  0  0
    8.1025    5.7890   -9.7463 H   0  0  0  0  0  0  0  0  0  0  0  0
    8.6934    7.2077  -11.3214 H   0  0  0  0  0  0  0  0  0  0  0  0
   10.4331    7.1676  -10.7684 H   0  0  0  0  0  0  0  0  0  0  0  0
    9.9337    6.4817  -13.2006 H   0  0  0  0  0  0  0  0  0  0  0  0
   10.9773    5.4025  -12.1877 H   0  0  0  0  0  0  0  0  0  0  0  0
    8.7970    4.2100  -11.6810 H   0  0  0  0  0  0  0  0  0  0  0  0
    7.1865    5.7647  -12.5765 H   0  0  0  0  0  0  0  0  0  0  0  0
    7.8720    5.4594  -14.2168 H   0  0  0  0  0  0  0  0  0  0  0  0
    6.4070    3.4964  -12.3831 H   0  0  0  0  0  0  0  0  0  0  0  0
    5.9539    4.0556  -14.0512 H   0  0  0  0  0  0  0  0  0  0  0  0
    7.6594    2.1213  -16.5981 H   0  0  0  0  0  0  0  0  0  0  0  0
    6.2025    0.6003  -17.9130 H   0  0  0  0  0  0  0  0  0  0  0  0
    4.3728   -0.6658  -16.7957 H   0  0  0  0  0  0  0  0  0  0  0  0
    9.3018    1.9706  -14.8479 H   0  0  0  0  0  0  0  0  0  0  0  0
    8.7816    3.6280  -15.3187 H   0  0  0  0  0  0  0  0  0  0  0  0
    9.9930    2.7038  -12.6640 H   0  0  0  0  0  0  0  0  0  0  0  0
   10.6251    3.9360  -13.8470 H   0  0  0  0  0  0  0  0  0  0  0  0
   10.3678    6.1461   -6.4741 H   0  0  0  0  0  0  0  0  0  0  0  0
   10.6130    6.0060   -4.0560 H   0  0  0  0  0  0  0  0  0  0  0  0
  1  2  2  0
  2  3  1  0
  3  4  1  0
  4  5  1  0
  5  6  1  0
  6  7  2  0
  7  8  1  0
  8  9  1  0
  9 10  1  0
 10 11  1  0
 11 12  1  0
 12 13  1  0
 13 14  1  0
 14 15  1  0
 15 16  1  0
 16 17  1  0
 17 18  1  0
 18 19  2  0
 19 20  1  0
 20 21  2  0
 21 22  1  0
 22 23  1  0
 22 24  2  0
 24 25  1  0
 17 26  1  0
 26 27  1  0
  8 28  2  0
 28 29  1  0
 29 30  1  0
 30  2  1  0
 29  5  2  0
 27 14  1  0
 24 18  1  0
  3 31  1  0
  3 32  1  0
  4 33  1  0
  4 34  1  0
  6 35  1  0
  7 36  1  0
 10 37  1  0
 10 38  1  0
 11 39  1  0
 11 40  1  0
 12 41  1  0
 12 42  1  0
 13 43  1  0
 13 44  1  0
 14 45  1  0
 15 46  1  0
 15 47  1  0
 16 48  1  0
 16 49  1  0
 19 50  1  0
 20 51  1  0
 21 52  1  0
 26 53  1  0
 26 54  1  0
 27 55  1  0
 27 56  1  0
 28 57  1  0
 30 58  1  0
M  CHG  1  14   1
M  END
>  <meeko>  (1) 
{"is_sidechain": false}

>  <vina_kcal_mol>  (1) 
-10.405

$$$$
