clorpromazina
     RDKit          3D

 41 43  0  0  0  0  0  0  0  0999 V2000
    4.0540   -0.8470  -16.8270 C   0  0  0  0  0  0  0  0  0  0  0  0
    4.1660   -1.3680  -15.4180 N   0  0  0  0  0  0  0  0  0  0  0  0
    3.2280   -0.6280  -14.4980 C   0  0  0  0  0  0  0  0  0  0  0  0
    5.5850   -1.3670  -14.8760 C   0  0  0  0  0  0  0  0  0  0  0  0
    6.2880   -0.0530  -15.1950 C   0  0  0  0  0  0  0  0  0  0  0  0
    7.3400    0.2750  -14.1220 C   0  0  0  0  0  0  0  0  0  0  0  0
    7.9460    1.5990  -14.3720 N   0  0  0  0  0  0  0  0  0  0  0  0
    7.3700    2.7190  -13.7000 C   0  0  0  0  0  0  0  0  0  0  0  0
    6.1100    2.6520  -13.0570 C   0  0  0  0  0  0  0  0  0  0  0  0
    5.5340    3.7500  -12.4050 C   0  0  0  0  0  0  0  0  0  0  0  0
    6.1980    4.9630  -12.3740 C   0  0  0  0  0  0  0  0  0  0  0  0
    7.4350    5.0720  -12.9970 C   0  0  0  0  0  0  0  0  0  0  0  0
    8.0190    3.9710  -13.6550 C   0  0  0  0  0  0  0  0  0  0  0  0
    9.6110    4.2820  -14.3720 S   0  0  0  0  0  0  0  0  0  0  0  0
    9.9160    2.7960  -15.2900 C   0  0  0  0  0  0  0  0  0  0  0  0
   11.0570    2.8280  -16.1190 C   0  0  0  0  0  0  0  0  0  0  0  0
   11.4230    1.7250  -16.8830 C   0  0  0  0  0  0  0  0  0  0  0  0
   10.6460    0.5840  -16.8140 C   0  0  0  0  0  0  0  0  0  0  0  0
   11.0580   -0.7970  -17.7560 Cl  0  0  0  0  0  0  0  0  0  0  0  0
    9.5150    0.5410  -15.9900 C   0  0  0  0  0  0  0  0  0  0  0  0
    9.1120    1.6410  -15.1980 C   0  0  0  0  0  0  0  0  0  0  0  0
    3.8229    0.2282  -16.8031 H   0  0  0  0  0  0  0  0  0  0  0  0
    5.0068   -1.0056  -17.3534 H   0  0  0  0  0  0  0  0  0  0  0  0
    3.2506   -1.3831  -17.3534 H   0  0  0  0  0  0  0  0  0  0  0  0
    3.8380   -2.3440  -15.4340 H   0  0  0  0  0  0  0  0  0  0  0  0
    3.4967   -0.8400  -13.4526 H   0  0  0  0  0  0  0  0  0  0  0  0
    3.3078    0.4530  -14.6851 H   0  0  0  0  0  0  0  0  0  0  0  0
    2.1952   -0.9572  -14.6851 H   0  0  0  0  0  0  0  0  0  0  0  0
    5.5539   -1.5032  -13.7849 H   0  0  0  0  0  0  0  0  0  0  0  0
    6.1428   -2.1881  -15.3499 H   0  0  0  0  0  0  0  0  0  0  0  0
    6.7840   -0.1370  -16.1732 H   0  0  0  0  0  0  0  0  0  0  0  0
    5.5396    0.7529  -15.2146 H   0  0  0  0  0  0  0  0  0  0  0  0
    6.8580    0.2794  -13.1332 H   0  0  0  0  0  0  0  0  0  0  0  0
    8.1312   -0.4884  -14.1576 H   0  0  0  0  0  0  0  0  0  0  0  0
    5.5611    1.6988  -13.0701 H   0  0  0  0  0  0  0  0  0  0  0  0
    4.5533    3.6475  -11.9175 H   0  0  0  0  0  0  0  0  0  0  0  0
    5.7528    5.8295  -11.8631 H   0  0  0  0  0  0  0  0  0  0  0  0
    7.9677    6.0342  -12.9763 H   0  0  0  0  0  0  0  0  0  0  0  0
   11.6681    3.7416  -16.1619 H   0  0  0  0  0  0  0  0  0  0  0  0
   12.3127    1.7600  -17.5290 H   0  0  0  0  0  0  0  0  0  0  0  0
    8.9180   -0.3823  -15.9575 H   0  0  0  0  0  0  0  0  0  0  0  0
  1  2  1  0
  2  3  1  0
  2  4  1  0
  4  5  1  0
  5  6  1  0
  6  7  1  0
  7  8  1  0
  8  9  2  0
  9 10  1  0
 10 11  2  0
 11 12  1  0
 12 13  2  0
 13 14  1  0
 14 15  1  0
 15 16  1  0
 16 17  2  0
 17 18  1  0
 18 19  1  0
 18 20  2  0
 20 21  1  0
 21  7  1  0
 13  8  1  0
 21 15  2  0
  1 22  1  0
  1 23  1  0
  1 24  1  0
  2 25  1  0
  3 26  1  0
  3 27  1  0
  3 28  1  0
  4 29  1  0
  4 30  1  0
  5 31  1  0
  5 32  1  0
  6 33  1  0
  6 34  1  0
  9 35  1  0
 10 36  1  0
 11 37  1  0
 12 38  1  0
 16 39  1  0
 17 40  1  0
 20 41  1  0
M  CHG  1   2   1
M  END
>  <meeko>  (1) 
{"is_sidechain": false}

>  <vina_kcal_mol>  (1) 
-7.624

$$$$
