domperidona
     RDKit          3D

 55 59  0  0  0  0  0  0  0  0999 V2000
    5.2460   -0.0050  -13.0780 O   0  0  0  0  0  0  0  0  0  0  0  0
    6.3170    0.4240  -13.4880 C   0  0  0  0  0  0  0  0  0  0  0  0
    7.3780   -0.3280  -13.9890 N   0  0  0  0  0  0  0  0  0  0  0  0
    8.3850    0.5390  -14.4010 C   0  0  0  0  0  0  0  0  0  0  0  0
    9.5870    0.2450  -14.9990 C   0  0  0  0  0  0  0  0  0  0  0  0
   10.3960    1.3270  -15.3510 C   0  0  0  0  0  0  0  0  0  0  0  0
    9.9840    2.6530  -15.0980 C   0  0  0  0  0  0  0  0  0  0  0  0
    8.7560    2.9260  -14.4820 C   0  0  0  0  0  0  0  0  0  0  0  0
    7.9710    1.8480  -14.1400 C   0  0  0  0  0  0  0  0  0  0  0  0
    6.6990    1.7780  -13.5400 N   0  0  0  0  0  0  0  0  0  0  0  0
    5.8380    2.9020  -13.2540 C   0  0  0  0  0  0  0  0  0  0  0  0
    6.3970    3.8500  -12.1820 C   0  0  0  0  0  0  0  0  0  0  0  0
    6.1850    5.3320  -12.4970 C   0  0  0  0  0  0  0  0  0  0  0  0
    7.1130    6.2290  -11.7160 N   0  0  0  0  0  0  0  0  0  0  0  0
    7.3950    7.5300  -12.4230 C   0  0  0  0  0  0  0  0  0  0  0  0
    8.6450    8.1800  -11.8600 C   0  0  0  0  0  0  0  0  0  0  0  0
    9.8730    7.3140  -12.1570 C   0  0  0  0  0  0  0  0  0  0  0  0
   11.0010    7.7220  -11.3320 N   0  0  0  0  0  0  0  0  0  0  0  0
   12.3610    7.7350  -11.7230 C   0  0  0  0  0  0  0  0  0  0  0  0
   12.8050    7.5320  -12.8390 O   0  0  0  0  0  0  0  0  0  0  0  0
   13.1110    8.0080  -10.5770 N   0  0  0  0  0  0  0  0  0  0  0  0
   12.2570    8.1050   -9.4890 C   0  0  0  0  0  0  0  0  0  0  0  0
   12.5710    8.3060   -8.1650 C   0  0  0  0  0  0  0  0  0  0  0  0
   11.5020    8.3160   -7.2680 C   0  0  0  0  0  0  0  0  0  0  0  0
   11.8190    8.5330   -5.5900 Cl  0  0  0  0  0  0  0  0  0  0  0  0
   10.1720    8.1350   -7.7050 C   0  0  0  0  0  0  0  0  0  0  0  0
    9.8840    7.9310   -9.0600 C   0  0  0  0  0  0  0  0  0  0  0  0
   10.9480    7.9200   -9.9380 C   0  0  0  0  0  0  0  0  0  0  0  0
    9.5490    5.8100  -12.0600 C   0  0  0  0  0  0  0  0  0  0  0  0
    8.3460    5.5290  -11.1700 C   0  0  0  0  0  0  0  0  0  0  0  0
    7.3760   -1.3320  -14.0870 H   0  0  0  0  0  0  0  0  0  0  0  0
    9.8967   -0.7929  -15.1910 H   0  0  0  0  0  0  0  0  0  0  0  0
   11.3680    1.1435  -15.8322 H   0  0  0  0  0  0  0  0  0  0  0  0
   10.6391    3.4871  -15.3898 H   0  0  0  0  0  0  0  0  0  0  0  0
    8.4326    3.9578  -14.2801 H   0  0  0  0  0  0  0  0  0  0  0  0
    5.6935    3.4740  -14.1824 H   0  0  0  0  0  0  0  0  0  0  0  0
    4.8949    2.4934  -12.8621 H   0  0  0  0  0  0  0  0  0  0  0  0
    5.9009    3.6241  -11.2266 H   0  0  0  0  0  0  0  0  0  0  0  0
    7.4836    3.6832  -12.1420 H   0  0  0  0  0  0  0  0  0  0  0  0
    6.3606    5.4927  -13.5709 H   0  0  0  0  0  0  0  0  0  0  0  0
    5.1542    5.5894  -12.2118 H   0  0  0  0  0  0  0  0  0  0  0  0
    6.6010    6.5200  -10.8540 H   0  0  0  0  0  0  0  0  0  0  0  0
    7.5401    7.3351  -13.4958 H   0  0  0  0  0  0  0  0  0  0  0  0
    6.5424    8.2087  -12.2731 H   0  0  0  0  0  0  0  0  0  0  0  0
    8.7786    9.1698  -12.3210 H   0  0  0  0  0  0  0  0  0  0  0  0
    8.5350    8.2841  -10.7705 H   0  0  0  0  0  0  0  0  0  0  0  0
   10.1739    7.4790  -13.2021 H   0  0  0  0  0  0  0  0  0  0  0  0
   14.1200    8.0660  -10.5620 H   0  0  0  0  0  0  0  0  0  0  0  0
   13.6090    8.4511   -7.8311 H   0  0  0  0  0  0  0  0  0  0  0  0
    9.3519    8.1545   -6.9722 H   0  0  0  0  0  0  0  0  0  0  0  0
    8.8514    7.7854   -9.4101 H   0  0  0  0  0  0  0  0  0  0  0  0
    9.3374    5.4289  -13.0699 H   0  0  0  0  0  0  0  0  0  0  0  0
   10.4200    5.3086  -11.6128 H   0  0  0  0  0  0  0  0  0  0  0  0
    8.1636    4.4447  -11.1377 H   0  0  0  0  0  0  0  0  0  0  0  0
    8.5533    5.9059  -10.1576 H   0  0  0  0  0  0  0  0  0  0  0  0
  1  2  2  0
  2  3  1  0
  3  4  1  0
  4  5  2  0
  5  6  1  0
  6  7  2  0
  7  8  1  0
  8  9  2  0
  9 10  1  0
 10 11  1  0
 11 12  1  0
 12 13  1  0
 13 14  1  0
 14 15  1  0
 15 16  1  0
 16 17  1  0
 17 18  1  0
 18 19  1  0
 19 20  2  0
 19 21  1  0
 21 22  1  0
 22 23  2  0
 23 24  1  0
 24 25  1  0
 24 26  2  0
 26 27  1  0
 27 28  2  0
 17 29  1  0
 29 30  1  0
 10  2  1  0
 30 14  1  0
  9  4  1  0
 28 18  1  0
 28 22  1  0
  3 31  1  0
  5 32  1  0
  6 33  1  0
  7 34  1  0
  8 35  1  0
 11 36  1  0
 11 37  1  0
 12 38  1  0
 12 39  1  0
 13 40  1  0
 13 41  1  0
 14 42  1  0
 15 43  1  0
 15 44  1  0
 16 45  1  0
 16 46  1  0
 17 47  1  0
 21 48  1  0
 23 49  1  0
 26 50  1  0
 27 51  1  0
 29 52  1  0
 29 53  1  0
 30 54  1  0
 30 55  1  0
M  CHG  1  14   1
M  END
>  <meeko>  (1) 
{"is_sidechain": false}

>  <vina_kcal_mol>  (1) 
-10.125

$$$$
