dopamina
     RDKit          3D

 23 23  0  0  0  0  0  0  0  0999 V2000
    8.6840    5.8580   -8.0840 N   0  0  0  0  0  0  0  0  0  0  0  0
    9.5130    7.0280   -7.6850 C   0  0  0  0  0  0  0  0  0  0  0  0
   10.7660    6.5800   -6.9250 C   0  0  0  0  0  0  0  0  0  0  0  0
   11.0920    7.4650   -5.7440 C   0  0  0  0  0  0  0  0  0  0  0  0
   11.5910    6.9080   -4.5530 C   0  0  0  0  0  0  0  0  0  0  0  0
   11.8310    7.7140   -3.4400 C   0  0  0  0  0  0  0  0  0  0  0  0
   11.5930    9.0770   -3.5230 C   0  0  0  0  0  0  0  0  0  0  0  0
   11.8200    9.8540   -2.4270 O   0  0  0  0  0  0  0  0  0  0  0  0
   11.1410    9.6480   -4.7080 C   0  0  0  0  0  0  0  0  0  0  0  0
   10.9520   11.0010   -4.7250 O   0  0  0  0  0  0  0  0  0  0  0  0
   10.8870    8.8550   -5.8210 C   0  0  0  0  0  0  0  0  0  0  0  0
    8.5050    5.8500   -9.0960 H   0  0  0  0  0  0  0  0  0  0  0  0
    7.7760    5.8430   -7.6030 H   0  0  0  0  0  0  0  0  0  0  0  0
    9.1640    4.9730   -7.8570 H   0  0  0  0  0  0  0  0  0  0  0  0
    9.8173    7.5778   -8.5878 H   0  0  0  0  0  0  0  0  0  0  0  0
    8.9144    7.6726   -7.0245 H   0  0  0  0  0  0  0  0  0  0  0  0
   10.6062    5.5546   -6.5603 H   0  0  0  0  0  0  0  0  0  0  0  0
   11.6129    6.6415   -7.6243 H   0  0  0  0  0  0  0  0  0  0  0  0
   11.7937    5.8282   -4.4986 H   0  0  0  0  0  0  0  0  0  0  0  0
   12.2057    7.2719   -2.5050 H   0  0  0  0  0  0  0  0  0  0  0  0
   11.0220    9.7620   -1.8690 H   0  0  0  0  0  0  0  0  0  0  0  0
   11.5320   11.4180   -4.0650 H   0  0  0  0  0  0  0  0  0  0  0  0
   10.5282    9.3109   -6.7556 H   0  0  0  0  0  0  0  0  0  0  0  0
  1  2  1  0
  2  3  1  0
  3  4  1  0
  4  5  1  0
  5  6  2  0
  6  7  1  0
  7  8  1  0
  7  9  2  0
  9 10  1  0
  9 11  1  0
 11  4  2  0
  1 12  1  0
  1 13  1  0
  1 14  1  0
  2 15  1  0
  2 16  1  0
  3 17  1  0
  3 18  1  0
  5 19  1  0
  6 20  1  0
  8 21  1  0
 10 22  1  0
 11 23  1  0
M  CHG  1   1   1
M  END
>  <meeko>  (1) 
{"is_sidechain": false}

>  <vina_kcal_mol>  (1) 
-6.506

$$$$
