haloperidol
     RDKit          3D

 50 52  0  0  0  0  0  0  0  0999 V2000
    6.5100    5.9110  -11.4680 O   0  0  0  0  0  0  0  0  0  0  0  0
    7.1300    5.2830  -12.3270 C   0  0  0  0  0  0  0  0  0  0  0  0
    8.3810    5.8670  -12.9680 C   0  0  0  0  0  0  0  0  0  0  0  0
    9.4940    6.0680  -11.9300 C   0  0  0  0  0  0  0  0  0  0  0  0
    9.6370    7.5330  -11.5070 C   0  0  0  0  0  0  0  0  0  0  0  0
   10.0750    7.6210  -10.0670 N   0  0  0  0  0  0  0  0  0  0  0  0
   11.5340    7.9670   -9.9080 C   0  0  0  0  0  0  0  0  0  0  0  0
   11.8020    8.3950   -8.4660 C   0  0  0  0  0  0  0  0  0  0  0  0
   10.7720    7.8340   -7.4620 C   0  0  0  0  0  0  0  0  0  0  0  0
    9.5730    8.6300   -7.5970 O   0  0  0  0  0  0  0  0  0  0  0  0
   11.2910    7.9750   -6.0330 C   0  0  0  0  0  0  0  0  0  0  0  0
   11.1010    6.9170   -5.1190 C   0  0  0  0  0  0  0  0  0  0  0  0
   11.5560    7.0040   -3.8000 C   0  0  0  0  0  0  0  0  0  0  0  0
   12.2100    8.1540   -3.3710 C   0  0  0  0  0  0  0  0  0  0  0  0
   12.7720    8.2660   -1.7510 Cl  0  0  0  0  0  0  0  0  0  0  0  0
   12.4090    9.2130   -4.2500 C   0  0  0  0  0  0  0  0  0  0  0  0
   11.9530    9.1250   -5.5710 C   0  0  0  0  0  0  0  0  0  0  0  0
   10.3720    6.4140   -7.8930 C   0  0  0  0  0  0  0  0  0  0  0  0
    9.7290    6.3830   -9.2800 C   0  0  0  0  0  0  0  0  0  0  0  0
    6.6420    3.9420  -12.7700 C   0  0  0  0  0  0  0  0  0  0  0  0
    5.4830    3.3550  -12.2410 C   0  0  0  0  0  0  0  0  0  0  0  0
    5.0730    2.0950  -12.6870 C   0  0  0  0  0  0  0  0  0  0  0  0
    5.8160    1.4280  -13.6550 C   0  0  0  0  0  0  0  0  0  0  0  0
    5.4170    0.2220  -14.0780 F   0  0  0  0  0  0  0  0  0  0  0  0
    6.9670    1.9950  -14.1870 C   0  0  0  0  0  0  0  0  0  0  0  0
    7.3810    3.2530  -13.7450 C   0  0  0  0  0  0  0  0  0  0  0  0
    8.7384    5.1796  -13.7489 H   0  0  0  0  0  0  0  0  0  0  0  0
    8.1266    6.8460  -13.4001 H   0  0  0  0  0  0  0  0  0  0  0  0
    9.2613    5.4641  -11.0405 H   0  0  0  0  0  0  0  0  0  0  0  0
   10.4433    5.7565  -12.3901 H   0  0  0  0  0  0  0  0  0  0  0  0
   10.3868    8.0235  -12.1451 H   0  0  0  0  0  0  0  0  0  0  0  0
    8.6638    8.0339  -11.6164 H   0  0  0  0  0  0  0  0  0  0  0  0
    9.5400    8.3840   -9.6090 H   0  0  0  0  0  0  0  0  0  0  0  0
   12.1479    7.0867  -10.1493 H   0  0  0  0  0  0  0  0  0  0  0  0
   11.7915    8.7916  -10.5890 H   0  0  0  0  0  0  0  0  0  0  0  0
   12.8018    8.0394   -8.1762 H   0  0  0  0  0  0  0  0  0  0  0  0
   11.7267    9.4919   -8.4319 H   0  0  0  0  0  0  0  0  0  0  0  0
    9.0750    8.5630   -6.7570 H   0  0  0  0  0  0  0  0  0  0  0  0
   10.5841    6.0047   -5.4512 H   0  0  0  0  0  0  0  0  0  0  0  0
   11.3975    6.1666   -3.1045 H   0  0  0  0  0  0  0  0  0  0  0  0
   12.9256   10.1215   -3.9069 H   0  0  0  0  0  0  0  0  0  0  0  0
   12.1155    9.9690   -6.2575 H   0  0  0  0  0  0  0  0  0  0  0  0
   11.2727    5.7827   -7.9074 H   0  0  0  0  0  0  0  0  0  0  0  0
    9.6294    6.0422   -7.1717 H   0  0  0  0  0  0  0  0  0  0  0  0
   10.0915    5.4985   -9.8242 H   0  0  0  0  0  0  0  0  0  0  0  0
    8.6366    6.3411   -9.1575 H   0  0  0  0  0  0  0  0  0  0  0  0
    4.8972    3.8856  -11.4759 H   0  0  0  0  0  0  0  0  0  0  0  0
    4.1649    1.6323  -12.2732 H   0  0  0  0  0  0  0  0  0  0  0  0
    7.5479    1.4570  -14.9507 H   0  0  0  0  0  0  0  0  0  0  0  0
    8.2915    3.7070  -14.1631 H   0  0  0  0  0  0  0  0  0  0  0  0
  1  2  2  0
  2  3  1  0
  3  4  1  0
  4  5  1  0
  5  6  1  0
  6  7  1  0
  7  8  1  0
  8  9  1  0
  9 10  1  0
  9 11  1  0
 11 12  1  0
 12 13  2  0
 13 14  1  0
 14 15  1  0
 14 16  2  0
 16 17  1  0
  9 18  1  0
 18 19  1  0
  2 20  1  0
 20 21  1  0
 21 22  2  0
 22 23  1  0
 23 24  1  0
 23 25  2  0
 25 26  1  0
 19  6  1  0
 26 20  2  0
 17 11  2  0
  3 27  1  0
  3 28  1  0
  4 29  1  0
  4 30  1  0
  5 31  1  0
  5 32  1  0
  6 33  1  0
  7 34  1  0
  7 35  1  0
  8 36  1  0
  8 37  1  0
 10 38  1  0
 12 39  1  0
 13 40  1  0
 16 41  1  0
 17 42  1  0
 18 43  1  0
 18 44  1  0
 19 45  1  0
 19 46  1  0
 21 47  1  0
 22 48  1  0
 25 49  1  0
 26 50  1  0
M  CHG  1   6   1
M  END
>  <meeko>  (1) 
{"is_sidechain": false}

>  <vina_kcal_mol>  (1) 
-10.803

$$$$
