metoclopramida
     RDKit          3D

 43 43  0  0  0  0  0  0  0  0999 V2000
    5.3990    2.0160  -12.4920 C   0  0  0  0  0  0  0  0  0  0  0  0
    5.7920    3.4770  -12.3630 C   0  0  0  0  0  0  0  0  0  0  0  0
    6.8290    3.8680  -13.4110 N   0  0  0  0  0  0  0  0  0  0  0  0
    7.3310    2.7290  -14.2780 C   0  0  0  0  0  0  0  0  0  0  0  0
    8.8210    2.4850  -14.1320 C   0  0  0  0  0  0  0  0  0  0  0  0
    7.9830    4.6570  -12.7830 C   0  0  0  0  0  0  0  0  0  0  0  0
    7.5540    5.4130  -11.5050 C   0  0  0  0  0  0  0  0  0  0  0  0
    8.6240    6.1760  -10.8970 N   0  0  0  0  0  0  0  0  0  0  0  0
    9.2140    5.7700   -9.7180 C   0  0  0  0  0  0  0  0  0  0  0  0
    8.9800    4.6570   -9.2540 O   0  0  0  0  0  0  0  0  0  0  0  0
   10.1580    6.7110   -9.0320 C   0  0  0  0  0  0  0  0  0  0  0  0
   10.2190    6.6030   -7.6330 C   0  0  0  0  0  0  0  0  0  0  0  0
   11.0640    7.4310   -6.8940 C   0  0  0  0  0  0  0  0  0  0  0  0
   11.0850    7.2580   -5.1740 Cl  0  0  0  0  0  0  0  0  0  0  0  0
   11.8960    8.3610   -7.5310 C   0  0  0  0  0  0  0  0  0  0  0  0
   12.6570    9.2930   -6.8080 N   0  0  0  0  0  0  0  0  0  0  0  0
   11.7930    8.5010   -8.9230 C   0  0  0  0  0  0  0  0  0  0  0  0
   10.9440    7.6820   -9.6860 C   0  0  0  0  0  0  0  0  0  0  0  0
   10.8270    7.7820  -11.0520 O   0  0  0  0  0  0  0  0  0  0  0  0
   11.9310    7.3510  -11.8470 C   0  0  0  0  0  0  0  0  0  0  0  0
    5.2812    1.5781  -11.4898 H   0  0  0  0  0  0  0  0  0  0  0  0
    4.4482    1.9390  -13.0398 H   0  0  0  0  0  0  0  0  0  0  0  0
    6.1829    1.4724  -13.0398 H   0  0  0  0  0  0  0  0  0  0  0  0
    4.8963    4.1017  -12.4951 H   0  0  0  0  0  0  0  0  0  0  0  0
    6.2313    3.6311  -11.3664 H   0  0  0  0  0  0  0  0  0  0  0  0
    6.3500    4.5100  -14.0530 H   0  0  0  0  0  0  0  0  0  0  0  0
    6.7960    1.8106  -13.9945 H   0  0  0  0  0  0  0  0  0  0  0  0
    7.1442    3.0063  -15.3260 H   0  0  0  0  0  0  0  0  0  0  0  0
    9.0827    2.4422  -13.0644 H   0  0  0  0  0  0  0  0  0  0  0  0
    9.0853    1.5316  -14.6128 H   0  0  0  0  0  0  0  0  0  0  0  0
    9.3756    3.3043  -14.6128 H   0  0  0  0  0  0  0  0  0  0  0  0
    8.7904    3.9561  -12.5244 H   0  0  0  0  0  0  0  0  0  0  0  0
    8.3172    5.4041  -13.5180 H   0  0  0  0  0  0  0  0  0  0  0  0
    6.7391    6.1040  -11.7666 H   0  0  0  0  0  0  0  0  0  0  0  0
    7.2404    4.6555  -10.7716 H   0  0  0  0  0  0  0  0  0  0  0  0
    8.7440    7.1550  -11.1510 H   0  0  0  0  0  0  0  0  0  0  0  0
    9.5952    5.8592   -7.1157 H   0  0  0  0  0  0  0  0  0  0  0  0
   13.1920    9.9280   -7.4010 H   0  0  0  0  0  0  0  0  0  0  0  0
   12.1680    9.7770   -6.0620 H   0  0  0  0  0  0  0  0  0  0  0  0
   12.3922    9.2716   -9.4300 H   0  0  0  0  0  0  0  0  0  0  0  0
   12.7528    7.0302  -11.1900 H   0  0  0  0  0  0  0  0  0  0  0  0
   11.6189    6.5087  -12.4819 H   0  0  0  0  0  0  0  0  0  0  0  0
   12.2722    8.1820  -12.4819 H   0  0  0  0  0  0  0  0  0  0  0  0
  1  2  1  0
  2  3  1  0
  3  4  1  0
  4  5  1  0
  3  6  1  0
  6  7  1  0
  7  8  1  0
  8  9  1  0
  9 10  2  0
  9 11  1  0
 11 12  1  0
 12 13  2  0
 13 14  1  0
 13 15  1  0
 15 16  1  0
 15 17  2  0
 17 18  1  0
 18 19  1  0
 19 20  1  0
 18 11  2  0
  1 21  1  0
  1 22  1  0
  1 23  1  0
  2 24  1  0
  2 25  1  0
  3 26  1  0
  4 27  1  0
  4 28  1  0
  5 29  1  0
  5 30  1  0
  5 31  1  0
  6 32  1  0
  6 33  1  0
  7 34  1  0
  7 35  1  0
  8 36  1  0
 12 37  1  0
 16 38  1  0
 16 39  1  0
 17 40  1  0
 20 41  1  0
 20 42  1  0
 20 43  1  0
M  CHG  1   3   1
M  END
>  <meeko>  (1) 
{"is_sidechain": false}

>  <vina_kcal_mol>  (1) 
-6.844

$$$$
