olanzapina
     RDKit          3D

 43 46  0  0  0  0  0  0  0  0999 V2000
    4.7800    0.5960  -13.7260 C   0  0  0  0  0  0  0  0  0  0  0  0
    6.0500    1.3710  -13.7920 C   0  0  0  0  0  0  0  0  0  0  0  0
    6.2440    2.7250  -13.6310 C   0  0  0  0  0  0  0  0  0  0  0  0
    7.6230    3.1240  -13.7690 C   0  0  0  0  0  0  0  0  0  0  0  0
    8.4180    2.0370  -14.0630 C   0  0  0  0  0  0  0  0  0  0  0  0
    7.5260    0.5730  -14.0890 S   0  0  0  0  0  0  0  0  0  0  0  0
    9.7520    1.9950  -14.3040 N   0  0  0  0  0  0  0  0  0  0  0  0
   10.4070    3.0040  -15.0520 C   0  0  0  0  0  0  0  0  0  0  0  0
   11.4440    2.5940  -15.9180 C   0  0  0  0  0  0  0  0  0  0  0  0
   12.1230    3.5060  -16.7250 C   0  0  0  0  0  0  0  0  0  0  0  0
   11.7860    4.8490  -16.6760 C   0  0  0  0  0  0  0  0  0  0  0  0
   10.7850    5.2760  -15.8030 C   0  0  0  0  0  0  0  0  0  0  0  0
   10.0890    4.3760  -14.9760 C   0  0  0  0  0  0  0  0  0  0  0  0
    9.2150    4.9890  -14.0590 N   0  0  0  0  0  0  0  0  0  0  0  0
    8.1350    4.4650  -13.5630 C   0  0  0  0  0  0  0  0  0  0  0  0
    7.3750    5.2000  -12.6520 N   0  0  0  0  0  0  0  0  0  0  0  0
    7.6390    4.8950  -11.2230 C   0  0  0  0  0  0  0  0  0  0  0  0
    9.0470    5.3950  -10.8020 C   0  0  0  0  0  0  0  0  0  0  0  0
    9.5590    6.4710  -11.7510 N   0  0  0  0  0  0  0  0  0  0  0  0
   10.8120    7.1280  -11.2950 C   0  0  0  0  0  0  0  0  0  0  0  0
    8.4670    7.4280  -12.1840 C   0  0  0  0  0  0  0  0  0  0  0  0
    7.3040    6.6680  -12.8720 C   0  0  0  0  0  0  0  0  0  0  0  0
    4.5066    0.4291  -12.6737 H   0  0  0  0  0  0  0  0  0  0  0  0
    3.9798    1.1599  -14.2278 H   0  0  0  0  0  0  0  0  0  0  0  0
    4.9155   -0.3735  -14.2278 H   0  0  0  0  0  0  0  0  0  0  0  0
    5.4283    3.4317  -13.4183 H   0  0  0  0  0  0  0  0  0  0  0  0
   10.0970    1.0670  -14.5440 H   0  0  0  0  0  0  0  0  0  0  0  0
   11.7227    1.5306  -15.9569 H   0  0  0  0  0  0  0  0  0  0  0  0
   12.9223    3.1609  -17.3973 H   0  0  0  0  0  0  0  0  0  0  0  0
   12.3042    5.5738  -17.3211 H   0  0  0  0  0  0  0  0  0  0  0  0
   10.5332    6.3459  -15.7603 H   0  0  0  0  0  0  0  0  0  0  0  0
    6.8794    5.3924  -10.6021 H   0  0  0  0  0  0  0  0  0  0  0  0
    7.5960    3.8049  -11.0820 H   0  0  0  0  0  0  0  0  0  0  0  0
    8.9902    5.8114   -9.7854 H   0  0  0  0  0  0  0  0  0  0  0  0
    9.7422    4.5432  -10.8355 H   0  0  0  0  0  0  0  0  0  0  0  0
    9.7840    5.9520  -12.6290 H   0  0  0  0  0  0  0  0  0  0  0  0
   10.8393    7.1423  -10.1954 H   0  0  0  0  0  0  0  0  0  0  0  0
   11.6790    6.5685  -11.6761 H   0  0  0  0  0  0  0  0  0  0  0  0
   10.8449    8.1594  -11.6761 H   0  0  0  0  0  0  0  0  0  0  0  0
    8.0792    7.9552  -11.2999 H   0  0  0  0  0  0  0  0  0  0  0  0
    8.8924    8.1435  -12.9031 H   0  0  0  0  0  0  0  0  0  0  0  0
    6.3512    7.0398  -12.4671 H   0  0  0  0  0  0  0  0  0  0  0  0
    7.3810    6.8480  -13.9544 H   0  0  0  0  0  0  0  0  0  0  0  0
  1  2  1  0
  2  3  2  0
  3  4  1  0
  4  5  2  0
  5  6  1  0
  5  7  1  0
  7  8  1  0
  8  9  2  0
  9 10  1  0
 10 11  2  0
 11 12  1  0
 12 13  2  0
 13 14  1  0
 14 15  2  0
 15 16  1  0
 16 17  1  0
 17 18  1  0
 18 19  1  0
 19 20  1  0
 19 21  1  0
 21 22  1  0
  6  2  1  0
 13  8  1  0
 22 16  1  0
 15  4  1  0
  1 23  1  0
  1 24  1  0
  1 25  1  0
  3 26  1  0
  7 27  1  0
  9 28  1  0
 10 29  1  0
 11 30  1  0
 12 31  1  0
 17 32  1  0
 17 33  1  0
 18 34  1  0
 18 35  1  0
 19 36  1  0
 20 37  1  0
 20 38  1  0
 20 39  1  0
 21 40  1  0
 21 41  1  0
 22 42  1  0
 22 43  1  0
M  CHG  1  19   1
M  END
>  <meeko>  (1) 
{"is_sidechain": false}

>  <vina_kcal_mol>  (1) 
-7.985

$$$$
