risperidona
     RDKit          3D

 58 62  0  0  0  0  0  0  0  0999 V2000
   10.0690    5.1040  -14.5940 C   0  0  0  0  0  0  0  0  0  0  0  0
    8.8070    4.5990  -13.9420 C   0  0  0  0  0  0  0  0  0  0  0  0
    8.3550    3.4290  -14.4870 N   0  0  0  0  0  0  0  0  0  0  0  0
    7.2850    2.8750  -14.0140 C   0  0  0  0  0  0  0  0  0  0  0  0
    6.5340    3.4230  -13.0030 N   0  0  0  0  0  0  0  0  0  0  0  0
    6.9400    4.5960  -12.4070 C   0  0  0  0  0  0  0  0  0  0  0  0
    6.3420    5.1580  -11.4860 O   0  0  0  0  0  0  0  0  0  0  0  0
    8.1810    5.2290  -12.9350 C   0  0  0  0  0  0  0  0  0  0  0  0
    8.6110    6.4810  -12.2190 C   0  0  0  0  0  0  0  0  0  0  0  0
   10.0160    6.3350  -11.6160 C   0  0  0  0  0  0  0  0  0  0  0  0
   10.1360    7.1070  -10.3070 N   0  0  0  0  0  0  0  0  0  0  0  0
   11.4670    7.8150  -10.1750 C   0  0  0  0  0  0  0  0  0  0  0  0
   11.4140    8.7850   -8.9990 C   0  0  0  0  0  0  0  0  0  0  0  0
   10.4970    8.3060   -7.8620 C   0  0  0  0  0  0  0  0  0  0  0  0
   10.8530    8.9160   -6.5420 C   0  0  0  0  0  0  0  0  0  0  0  0
   10.8230   10.2510   -6.4320 N   0  0  0  0  0  0  0  0  0  0  0  0
   11.1960   10.5350   -5.1310 O   0  0  0  0  0  0  0  0  0  0  0  0
   11.4460    9.3770   -4.4660 C   0  0  0  0  0  0  0  0  0  0  0  0
   11.8470    9.2680   -3.1380 C   0  0  0  0  0  0  0  0  0  0  0  0
   12.0440    7.9700   -2.6760 C   0  0  0  0  0  0  0  0  0  0  0  0
   12.4320    7.7840   -1.4080 F   0  0  0  0  0  0  0  0  0  0  0  0
   11.8550    6.8540   -3.4920 C   0  0  0  0  0  0  0  0  0  0  0  0
   11.4510    7.0020   -4.8270 C   0  0  0  0  0  0  0  0  0  0  0  0
   11.2420    8.3040   -5.3190 C   0  0  0  0  0  0  0  0  0  0  0  0
   10.4330    6.7800   -7.8230 C   0  0  0  0  0  0  0  0  0  0  0  0
    9.8580    6.2060   -9.1170 C   0  0  0  0  0  0  0  0  0  0  0  0
    5.4070    2.7230  -12.3930 C   0  0  0  0  0  0  0  0  0  0  0  0
    4.7960    1.6330  -13.2570 C   0  0  0  0  0  0  0  0  0  0  0  0
    5.9020    0.7530  -13.8080 C   0  0  0  0  0  0  0  0  0  0  0  0
    6.8140    1.5940  -14.6770 C   0  0  0  0  0  0  0  0  0  0  0  0
   10.7924    5.3935  -13.8175 H   0  0  0  0  0  0  0  0  0  0  0  0
   10.5014    4.3096  -15.2201 H   0  0  0  0  0  0  0  0  0  0  0  0
    9.8341    5.9774  -15.2201 H   0  0  0  0  0  0  0  0  0  0  0  0
    8.6147    7.3172  -12.9336 H   0  0  0  0  0  0  0  0  0  0  0  0
    7.9028    6.6677  -11.3983 H   0  0  0  0  0  0  0  0  0  0  0  0
   10.2156    5.2704  -11.4245 H   0  0  0  0  0  0  0  0  0  0  0  0
   10.7461    6.7437  -12.3301 H   0  0  0  0  0  0  0  0  0  0  0  0
    9.4010    7.8290  -10.3230 H   0  0  0  0  0  0  0  0  0  0  0  0
   12.2610    7.0734  -10.0028 H   0  0  0  0  0  0  0  0  0  0  0  0
   11.6787    8.3719  -11.0997 H   0  0  0  0  0  0  0  0  0  0  0  0
   12.4318    8.9070   -8.5999 H   0  0  0  0  0  0  0  0  0  0  0  0
   11.0021    9.7332   -9.3747 H   0  0  0  0  0  0  0  0  0  0  0  0
    9.4798    8.6651   -8.0772 H   0  0  0  0  0  0  0  0  0  0  0  0
   11.9982   10.1486   -2.4964 H   0  0  0  0  0  0  0  0  0  0  0  0
   12.0248    5.8468   -3.0837 H   0  0  0  0  0  0  0  0  0  0  0  0
   11.3015    6.1238   -5.4723 H   0  0  0  0  0  0  0  0  0  0  0  0
   11.4489    6.3841   -7.6777 H   0  0  0  0  0  0  0  0  0  0  0  0
    9.7731    6.4852   -6.9937 H   0  0  0  0  0  0  0  0  0  0  0  0
   10.3122    5.2214   -9.3023 H   0  0  0  0  0  0  0  0  0  0  0  0
    8.7675    6.1230   -8.9989 H   0  0  0  0  0  0  0  0  0  0  0  0
    5.7552    2.2633  -11.4563 H   0  0  0  0  0  0  0  0  0  0  0  0
    4.6198    3.4756  -12.2382 H   0  0  0  0  0  0  0  0  0  0  0  0
    4.1096    1.0242  -12.6501 H   0  0  0  0  0  0  0  0  0  0  0  0
    4.2390    2.0898  -14.0884 H   0  0  0  0  0  0  0  0  0  0  0  0
    6.4791    0.3219  -12.9767 H   0  0  0  0  0  0  0  0  0  0  0  0
    5.4663   -0.0615  -14.4054 H   0  0  0  0  0  0  0  0  0  0  0  0
    7.6979    0.9924  -14.9354 H   0  0  0  0  0  0  0  0  0  0  0  0
    6.2303    1.8881  -15.5617 H   0  0  0  0  0  0  0  0  0  0  0  0
  1  2  1  0
  2  3  1  0
  3  4  2  0
  4  5  1  0
  5  6  1  0
  6  7  2  0
  6  8  1  0
  8  9  1  0
  9 10  1  0
 10 11  1  0
 11 12  1  0
 12 13  1  0
 13 14  1  0
 14 15  1  0
 15 16  2  0
 16 17  1  0
 17 18  1  0
 18 19  2  0
 19 20  1  0
 20 21  1  0
 20 22  2  0
 22 23  1  0
 23 24  2  0
 14 25  1  0
 25 26  1  0
  5 27  1  0
 27 28  1  0
 28 29  1  0
 29 30  1  0
  8  2  2  0
 26 11  1  0
 30  4  1  0
 24 15  1  0
 24 18  1  0
  1 31  1  0
  1 32  1  0
  1 33  1  0
  9 34  1  0
  9 35  1  0
 10 36  1  0
 10 37  1  0
 11 38  1  0
 12 39  1  0
 12 40  1  0
 13 41  1  0
 13 42  1  0
 14 43  1  0
 19 44  1  0
 22 45  1  0
 23 46  1  0
 25 47  1  0
 25 48  1  0
 26 49  1  0
 26 50  1  0
 27 51  1  0
 27 52  1  0
 28 53  1  0
 28 54  1  0
 29 55  1  0
 29 56  1  0
 30 57  1  0
 30 58  1  0
M  CHG  1  11   1
M  END
>  <meeko>  (1) 
{"is_sidechain": false}

>  <vina_kcal_mol>  (1) 
-12.373

$$$$
