sulpirida
     RDKit          3D

 47 48  0  0  0  0  0  0  0  0999 V2000
    6.6570    1.4600  -15.8770 C   0  0  0  0  0  0  0  0  0  0  0  0
    7.6850    2.1530  -14.9980 C   0  0  0  0  0  0  0  0  0  0  0  0
    7.1440    2.3440  -13.6000 N   0  0  0  0  0  0  0  0  0  0  0  0
    5.6860    1.9040  -13.4650 C   0  0  0  0  0  0  0  0  0  0  0  0
    5.0700    2.8930  -12.5000 C   0  0  0  0  0  0  0  0  0  0  0  0
    5.7620    4.1860  -12.8730 C   0  0  0  0  0  0  0  0  0  0  0  0
    7.2230    3.7680  -12.9940 C   0  0  0  0  0  0  0  0  0  0  0  0
    8.1440    4.7480  -13.7460 C   0  0  0  0  0  0  0  0  0  0  0  0
    9.2370    5.2550  -12.9420 N   0  0  0  0  0  0  0  0  0  0  0  0
    9.1310    6.4270  -12.2260 C   0  0  0  0  0  0  0  0  0  0  0  0
    8.0630    7.0290  -12.1610 O   0  0  0  0  0  0  0  0  0  0  0  0
   10.3540    6.9510  -11.5350 C   0  0  0  0  0  0  0  0  0  0  0  0
   10.2140    7.2110  -10.1590 C   0  0  0  0  0  0  0  0  0  0  0  0
   11.2920    7.7040   -9.4220 C   0  0  0  0  0  0  0  0  0  0  0  0
   11.0770    8.0720   -7.7030 S   0  0  0  0  0  0  0  0  0  0  0  0
    9.5230    8.7020   -7.6790 N   0  0  0  0  0  0  0  0  0  0  0  0
   11.9630    9.1550   -7.3490 O   0  0  0  0  0  0  0  0  0  0  0  0
   11.0200    6.8350   -6.9630 O   0  0  0  0  0  0  0  0  0  0  0  0
   12.5120    7.9580  -10.0430 C   0  0  0  0  0  0  0  0  0  0  0  0
   12.6610    7.7000  -11.4080 C   0  0  0  0  0  0  0  0  0  0  0  0
   11.5940    7.1960  -12.1690 C   0  0  0  0  0  0  0  0  0  0  0  0
   11.6900    6.9250  -13.5130 O   0  0  0  0  0  0  0  0  0  0  0  0
   12.6500    7.6600  -14.2700 C   0  0  0  0  0  0  0  0  0  0  0  0
    5.9116    0.9575  -15.2430 H   0  0  0  0  0  0  0  0  0  0  0  0
    6.1556    2.2052  -16.5121 H   0  0  0  0  0  0  0  0  0  0  0  0
    7.1597    0.7157  -16.5121 H   0  0  0  0  0  0  0  0  0  0  0  0
    8.5959    1.5380  -14.9527 H   0  0  0  0  0  0  0  0  0  0  0  0
    7.9140    3.1391  -15.4284 H   0  0  0  0  0  0  0  0  0  0  0  0
    7.6990    1.7420  -12.9780 H   0  0  0  0  0  0  0  0  0  0  0  0
    5.1772    1.9455  -14.4394 H   0  0  0  0  0  0  0  0  0  0  0  0
    5.5972    0.8670  -13.1089 H   0  0  0  0  0  0  0  0  0  0  0  0
    3.9823    2.9672  -12.6466 H   0  0  0  0  0  0  0  0  0  0  0  0
    5.1990    2.6146  -11.4437 H   0  0  0  0  0  0  0  0  0  0  0  0
    5.3819    4.5770  -13.8283 H   0  0  0  0  0  0  0  0  0  0  0  0
    5.5999    4.9919  -12.1420 H   0  0  0  0  0  0  0  0  0  0  0  0
    7.7264    3.7787  -12.0160 H   0  0  0  0  0  0  0  0  0  0  0  0
    8.5669    4.2273  -14.6178 H   0  0  0  0  0  0  0  0  0  0  0  0
    7.5274    5.6131  -14.0314 H   0  0  0  0  0  0  0  0  0  0  0  0
   10.1570    4.8210  -12.9880 H   0  0  0  0  0  0  0  0  0  0  0  0
    9.2505    7.0248   -9.6620 H   0  0  0  0  0  0  0  0  0  0  0  0
    9.5350    9.6610   -8.0300 H   0  0  0  0  0  0  0  0  0  0  0  0
    8.8960    8.0920   -8.2060 H   0  0  0  0  0  0  0  0  0  0  0  0
   13.3548    8.3600   -9.4615 H   0  0  0  0  0  0  0  0  0  0  0  0
   13.6286    7.8946  -11.8938 H   0  0  0  0  0  0  0  0  0  0  0  0
   13.3337    8.1835  -13.5856 H   0  0  0  0  0  0  0  0  0  0  0  0
   13.2243    6.9685  -14.9041 H   0  0  0  0  0  0  0  0  0  0  0  0
   12.1323    8.3948  -14.9041 H   0  0  0  0  0  0  0  0  0  0  0  0
  1  2  1  0
  2  3  1  0
  3  4  1  0
  4  5  1  0
  5  6  1  0
  6  7  1  0
  7  8  1  0
  8  9  1  0
  9 10  1  0
 10 11  2  0
 10 12  1  0
 12 13  1  0
 13 14  2  0
 14 15  1  0
 15 16  1  0
 15 17  2  0
 15 18  2  0
 14 19  1  0
 19 20  2  0
 20 21  1  0
 21 22  1  0
 22 23  1  0
  7  3  1  0
 21 12  2  0
  1 24  1  0
  1 25  1  0
  1 26  1  0
  2 27  1  0
  2 28  1  0
  3 29  1  0
  4 30  1  0
  4 31  1  0
  5 32  1  0
  5 33  1  0
  6 34  1  0
  6 35  1  0
  7 36  1  0
  8 37  1  0
  8 38  1  0
  9 39  1  0
 13 40  1  0
 16 41  1  0
 16 42  1  0
 19 43  1  0
 20 44  1  0
 23 45  1  0
 23 46  1  0
 23 47  1  0
M  CHG  1   3   1
M  END
>  <meeko>  (1) 
{"is_sidechain": false}

>  <vina_kcal_mol>  (1) 
-7.602

$$$$
