cetirizina
     RDKit          3D

 53 55  0  0  0  0  0  0  0  0999 V2000
   17.1420   34.9210   15.4420 O   0  0  0  0  0  0  0  0  0  0  0  0
   17.4250   33.8680   14.8150 C   0  0  0  0  0  0  0  0  0  0  0  0
   18.1360   33.7840   13.7540 O   0  0  0  0  0  0  0  0  0  0  0  0
   16.5300   32.6440   15.0650 C   0  0  0  0  0  0  0  0  0  0  0  0
   16.2030   32.5600   16.4840 O   0  0  0  0  0  0  0  0  0  0  0  0
   14.8360   32.8380   16.7870 C   0  0  0  0  0  0  0  0  0  0  0  0
   14.5150   32.9360   18.2920 C   0  0  0  0  0  0  0  0  0  0  0  0
   15.6470   33.5420   19.1070 N   0  0  0  0  0  0  0  0  0  0  0  0
   15.9500   34.9970   18.9200 C   0  0  0  0  0  0  0  0  0  0  0  0
   15.2730   35.8620   20.0040 C   0  0  0  0  0  0  0  0  0  0  0  0
   15.5560   35.3490   21.4200 N   0  0  0  0  0  0  0  0  0  0  0  0
   17.0140   35.5590   21.8910 C   0  0  0  0  0  0  0  0  0  0  0  0
   17.1220   35.7950   23.3900 C   0  0  0  0  0  0  0  0  0  0  0  0
   17.0070   37.1060   23.8910 C   0  0  0  0  0  0  0  0  0  0  0  0
   17.1300   37.3620   25.2570 C   0  0  0  0  0  0  0  0  0  0  0  0
   17.3630   36.3160   26.1440 C   0  0  0  0  0  0  0  0  0  0  0  0
   17.4700   35.0120   25.6690 C   0  0  0  0  0  0  0  0  0  0  0  0
   17.3500   34.7490   24.3030 C   0  0  0  0  0  0  0  0  0  0  0  0
   17.7650   36.6100   21.0790 C   0  0  0  0  0  0  0  0  0  0  0  0
   17.6450   37.9910   21.3270 C   0  0  0  0  0  0  0  0  0  0  0  0
   18.3450   38.9200   20.5510 C   0  0  0  0  0  0  0  0  0  0  0  0
   19.1790   38.4840   19.5240 C   0  0  0  0  0  0  0  0  0  0  0  0
   20.0300   39.6310   18.5690 Cl  0  0  0  0  0  0  0  0  0  0  0  0
   19.3220   37.1240   19.2680 C   0  0  0  0  0  0  0  0  0  0  0  0
   18.6240   36.1930   20.0430 C   0  0  0  0  0  0  0  0  0  0  0  0
   15.0720   33.8950   21.5380 C   0  0  0  0  0  0  0  0  0  0  0  0
   15.7660   32.9800   20.5170 C   0  0  0  0  0  0  0  0  0  0  0  0
   15.6032   32.7424   14.4807 H   0  0  0  0  0  0  0  0  0  0  0  0
   17.0631   31.7322   14.7579 H   0  0  0  0  0  0  0  0  0  0  0  0
   14.5692   33.7961   16.3170 H   0  0  0  0  0  0  0  0  0  0  0  0
   14.2539   31.9884   16.4006 H   0  0  0  0  0  0  0  0  0  0  0  0
   13.6191   33.5616   18.4185 H   0  0  0  0  0  0  0  0  0  0  0  0
   14.3585   31.9115   18.6606 H   0  0  0  0  0  0  0  0  0  0  0  0
   16.5030   33.0910   18.6780 H   0  0  0  0  0  0  0  0  0  0  0  0
   17.0387   35.1447   18.9738 H   0  0  0  0  0  0  0  0  0  0  0  0
   15.5596   35.3065   17.9393 H   0  0  0  0  0  0  0  0  0  0  0  0
   15.6487   36.8924   19.9197 H   0  0  0  0  0  0  0  0  0  0  0  0
   14.1862   35.8153   19.8407 H   0  0  0  0  0  0  0  0  0  0  0  0
   14.9850   35.9000   22.0690 H   0  0  0  0  0  0  0  0  0  0  0  0
   17.5250   34.6056   21.6910 H   0  0  0  0  0  0  0  0  0  0  0  0
   16.8179   37.9383   23.1970 H   0  0  0  0  0  0  0  0  0  0  0  0
   17.0426   38.3920   25.6330 H   0  0  0  0  0  0  0  0  0  0  0  0
   17.4627   36.5193   27.2204 H   0  0  0  0  0  0  0  0  0  0  0  0
   17.6498   34.1856   26.3724 H   0  0  0  0  0  0  0  0  0  0  0  0
   17.4345   33.7150   23.9374 H   0  0  0  0  0  0  0  0  0  0  0  0
   16.9933   38.3429   22.1403 H   0  0  0  0  0  0  0  0  0  0  0  0
   18.2370   39.9961   20.7517 H   0  0  0  0  0  0  0  0  0  0  0  0
   19.9827   36.7820   18.4577 H   0  0  0  0  0  0  0  0  0  0  0  0
   18.7473   35.1188   19.8409 H   0  0  0  0  0  0  0  0  0  0  0  0
   15.2902   33.5279   22.5517 H   0  0  0  0  0  0  0  0  0  0  0  0
   13.9909   33.8762   21.3359 H   0  0  0  0  0  0  0  0  0  0  0  0
   16.8305   32.8911   20.7796 H   0  0  0  0  0  0  0  0  0  0  0  0
   15.2777   31.9946   20.5426 H   0  0  0  0  0  0  0  0  0  0  0  0
  1  2  2  0
  2  3  1  0
  2  4  1  0
  4  5  1  0
  5  6  1  0
  6  7  1  0
  7  8  1  0
  8  9  1  0
  9 10  1  0
 10 11  1  0
 11 12  1  0
 12 13  1  0
 13 14  2  0
 14 15  1  0
 15 16  2  0
 16 17  1  0
 17 18  2  0
 12 19  1  0
 19 20  1  0
 20 21  2  0
 21 22  1  0
 22 23  1  0
 22 24  2  0
 24 25  1  0
 11 26  1  0
 26 27  1  0
 27  8  1  0
 18 13  1  0
 25 19  2  0
  4 28  1  0
  4 29  1  0
  6 30  1  0
  6 31  1  0
  7 32  1  0
  7 33  1  0
  8 34  1  0
  9 35  1  0
  9 36  1  0
 10 37  1  0
 10 38  1  0
 11 39  1  0
 12 40  1  0
 14 41  1  0
 15 42  1  0
 16 43  1  0
 17 44  1  0
 18 45  1  0
 20 46  1  0
 21 47  1  0
 24 48  1  0
 25 49  1  0
 26 50  1  0
 26 51  1  0
 27 52  1  0
 27 53  1  0
M  CHG  3   3  -1   8   1  11   1
M  END
>  <meeko>  (1) 
{"is_sidechain": false}

>  <vina_kcal_mol>  (1) 
-7.48

$$$$
