clorfenamina
     RDKit          3D

 39 40  0  0  0  0  0  0  0  0999 V2000
   15.5240   34.3910   19.4150 C   0  0  0  0  0  0  0  0  0  0  0  0
   15.2620   34.5940   20.8820 N   0  0  0  0  0  0  0  0  0  0  0  0
   14.4990   33.4280   21.4580 C   0  0  0  0  0  0  0  0  0  0  0  0
   14.5590   35.9170   21.1440 C   0  0  0  0  0  0  0  0  0  0  0  0
   15.2730   36.6870   22.2580 C   0  0  0  0  0  0  0  0  0  0  0  0
   16.7530   36.2760   22.4520 C   0  0  0  0  0  0  0  0  0  0  0  0
   17.6740   37.0700   21.5320 C   0  0  0  0  0  0  0  0  0  0  0  0
   17.9060   38.4460   21.7050 C   0  0  0  0  0  0  0  0  0  0  0  0
   18.7310   39.1470   20.8210 C   0  0  0  0  0  0  0  0  0  0  0  0
   19.3290   38.4830   19.7540 C   0  0  0  0  0  0  0  0  0  0  0  0
   20.3350   39.3500   18.6630 Cl  0  0  0  0  0  0  0  0  0  0  0  0
   19.1110   37.1220   19.5630 C   0  0  0  0  0  0  0  0  0  0  0  0
   18.2870   36.4190   20.4470 C   0  0  0  0  0  0  0  0  0  0  0  0
   17.1650   36.2610   23.9230 C   0  0  0  0  0  0  0  0  0  0  0  0
   17.3990   35.0400   24.5600 C   0  0  0  0  0  0  0  0  0  0  0  0
   17.7840   35.0380   25.8970 C   0  0  0  0  0  0  0  0  0  0  0  0
   17.9260   36.2450   26.5670 C   0  0  0  0  0  0  0  0  0  0  0  0
   17.6760   37.4130   25.8680 C   0  0  0  0  0  0  0  0  0  0  0  0
   17.3010   37.4540   24.5660 N   0  0  0  0  0  0  0  0  0  0  0  0
   16.3875   33.7219   19.2859 H   0  0  0  0  0  0  0  0  0  0  0  0
   14.6380   33.9413   18.9431 H   0  0  0  0  0  0  0  0  0  0  0  0
   15.7381   35.3613   18.9431 H   0  0  0  0  0  0  0  0  0  0  0  0
   16.1770   34.6250   21.3470 H   0  0  0  0  0  0  0  0  0  0  0  0
   14.5304   33.4760   22.5565 H   0  0  0  0  0  0  0  0  0  0  0  0
   13.4534   33.4705   21.1189 H   0  0  0  0  0  0  0  0  0  0  0  0
   14.9565   32.4869   21.1189 H   0  0  0  0  0  0  0  0  0  0  0  0
   14.5661   36.5200   20.2241 H   0  0  0  0  0  0  0  0  0  0  0  0
   13.5232   35.7162   21.4552 H   0  0  0  0  0  0  0  0  0  0  0  0
   15.2398   37.7593   22.0147 H   0  0  0  0  0  0  0  0  0  0  0  0
   14.7495   36.4519   23.1964 H   0  0  0  0  0  0  0  0  0  0  0  0
   16.8640   35.2283   22.1359 H   0  0  0  0  0  0  0  0  0  0  0  0
   17.4333   38.9763   22.5448 H   0  0  0  0  0  0  0  0  0  0  0  0
   18.9075   40.2227   20.9685 H   0  0  0  0  0  0  0  0  0  0  0  0
   19.5857   36.6006   18.7187 H   0  0  0  0  0  0  0  0  0  0  0  0
   18.1162   35.3435   20.2918 H   0  0  0  0  0  0  0  0  0  0  0  0
   17.2805   34.0934   24.0123 H   0  0  0  0  0  0  0  0  0  0  0  0
   17.9741   34.0882   26.4183 H   0  0  0  0  0  0  0  0  0  0  0  0
   18.2288   36.2726   27.6241 H   0  0  0  0  0  0  0  0  0  0  0  0
   17.7886   38.3678   26.4024 H   0  0  0  0  0  0  0  0  0  0  0  0
  1  2  1  0
  2  3  1  0
  2  4  1  0
  4  5  1  0
  5  6  1  0
  6  7  1  0
  7  8  1  0
  8  9  2  0
  9 10  1  0
 10 11  1  0
 10 12  2  0
 12 13  1  0
  6 14  1  0
 14 15  2  0
 15 16  1  0
 16 17  2  0
 17 18  1  0
 18 19  2  0
 13  7  2  0
 19 14  1  0
  1 20  1  0
  1 21  1  0
  1 22  1  0
  2 23  1  0
  3 24  1  0
  3 25  1  0
  3 26  1  0
  4 27  1  0
  4 28  1  0
  5 29  1  0
  5 30  1  0
  6 31  1  0
  8 32  1  0
  9 33  1  0
 12 34  1  0
 13 35  1  0
 15 36  1  0
 16 37  1  0
 17 38  1  0
 18 39  1  0
M  CHG  1   2   1
M  END
>  <meeko>  (1) 
{"is_sidechain": false}

>  <vina_kcal_mol>  (1) 
-8.334

$$$$
