desloratadina
     RDKit          3D

 42 45  0  0  0  0  0  0  0  0999 V2000
   17.5560   35.8750   27.4290 Cl  0  0  0  0  0  0  0  0  0  0  0  0
   17.4080   35.9860   25.7200 C   0  0  0  0  0  0  0  0  0  0  0  0
   17.5750   34.8470   24.9360 C   0  0  0  0  0  0  0  0  0  0  0  0
   17.4600   34.9400   23.5480 C   0  0  0  0  0  0  0  0  0  0  0  0
   17.1940   36.1760   22.9410 C   0  0  0  0  0  0  0  0  0  0  0  0
   16.9870   37.3160   23.7360 C   0  0  0  0  0  0  0  0  0  0  0  0
   17.1080   37.2140   25.1300 C   0  0  0  0  0  0  0  0  0  0  0  0
   16.5680   38.6130   23.0920 C   0  0  0  0  0  0  0  0  0  0  0  0
   17.7200   39.2360   22.3030 C   0  0  0  0  0  0  0  0  0  0  0  0
   18.3000   38.5020   21.1100 C   0  0  0  0  0  0  0  0  0  0  0  0
   19.1710   39.2380   20.2860 C   0  0  0  0  0  0  0  0  0  0  0  0
   19.7300   38.6660   19.1500 C   0  0  0  0  0  0  0  0  0  0  0  0
   19.4050   37.3580   18.8610 C   0  0  0  0  0  0  0  0  0  0  0  0
   18.5820   36.6080   19.6230 N   0  0  0  0  0  0  0  0  0  0  0  0
   18.0260   37.1810   20.7260 C   0  0  0  0  0  0  0  0  0  0  0  0
   17.0800   36.2930   21.4660 C   0  0  0  0  0  0  0  0  0  0  0  0
   16.1390   35.5570   20.8060 C   0  0  0  0  0  0  0  0  0  0  0  0
   15.1700   34.5860   21.4690 C   0  0  0  0  0  0  0  0  0  0  0  0
   15.2880   33.1620   20.9110 C   0  0  0  0  0  0  0  0  0  0  0  0
   15.6540   33.1550   19.4560 N   0  0  0  0  0  0  0  0  0  0  0  0
   15.2220   34.3830   18.7190 C   0  0  0  0  0  0  0  0  0  0  0  0
   15.9650   35.5960   19.2870 C   0  0  0  0  0  0  0  0  0  0  0  0
   17.7965   33.8786   25.4084 H   0  0  0  0  0  0  0  0  0  0  0  0
   17.5786   34.0396   22.9273 H   0  0  0  0  0  0  0  0  0  0  0  0
   16.9659   38.1048   25.7595 H   0  0  0  0  0  0  0  0  0  0  0  0
   15.7283   38.4193   22.4083 H   0  0  0  0  0  0  0  0  0  0  0  0
   16.2690   39.3148   23.8845 H   0  0  0  0  0  0  0  0  0  0  0  0
   17.3644   40.2099   21.9356 H   0  0  0  0  0  0  0  0  0  0  0  0
   18.5493   39.2434   23.0256 H   0  0  0  0  0  0  0  0  0  0  0  0
   19.4125   40.2796   20.5445 H   0  0  0  0  0  0  0  0  0  0  0  0
   20.4100   39.2385   18.5021 H   0  0  0  0  0  0  0  0  0  0  0  0
   19.8403   36.9008   17.9602 H   0  0  0  0  0  0  0  0  0  0  0  0
   15.3805   34.5600   22.5484 H   0  0  0  0  0  0  0  0  0  0  0  0
   14.1494   34.9411   21.2632 H   0  0  0  0  0  0  0  0  0  0  0  0
   16.0640   32.6233   21.4746 H   0  0  0  0  0  0  0  0  0  0  0  0
   14.3076   32.6744   21.0162 H   0  0  0  0  0  0  0  0  0  0  0  0
   15.2720   32.3150   19.0030 H   0  0  0  0  0  0  0  0  0  0  0  0
   16.6770   33.0820   19.3760 H   0  0  0  0  0  0  0  0  0  0  0  0
   15.4585   34.2735   17.6503 H   0  0  0  0  0  0  0  0  0  0  0  0
   14.1375   34.5239   18.8375 H   0  0  0  0  0  0  0  0  0  0  0  0
   16.9621   35.6398   18.8246 H   0  0  0  0  0  0  0  0  0  0  0  0
   15.3552   36.4821   19.0568 H   0  0  0  0  0  0  0  0  0  0  0  0
  1  2  1  0
  2  3  1  0
  3  4  2  0
  4  5  1  0
  5  6  2  0
  6  7  1  0
  6  8  1  0
  8  9  1  0
  9 10  1  0
 10 11  1  0
 11 12  2  0
 12 13  1  0
 13 14  2  0
 14 15  1  0
 15 16  1  0
 16 17  2  3
 17 18  1  0
 18 19  1  0
 19 20  1  0
 20 21  1  0
 21 22  1  0
  7  2  2  0
 15 10  2  0
 22 17  1  0
 16  5  1  0
  3 23  1  0
  4 24  1  0
  7 25  1  0
  8 26  1  0
  8 27  1  0
  9 28  1  0
  9 29  1  0
 11 30  1  0
 12 31  1  0
 13 32  1  0
 18 33  1  0
 18 34  1  0
 19 35  1  0
 19 36  1  0
 20 37  1  0
 20 38  1  0
 21 39  1  0
 21 40  1  0
 22 41  1  0
 22 42  1  0
M  CHG  1  20   1
M  END
>  <meeko>  (1) 
{"is_sidechain": false}

>  <vina_kcal_mol>  (1) 
-7.2

$$$$
