difenhidramina
     RDKit          3D

 41 42  0  0  0  0  0  0  0  0999 V2000
   14.8770   32.9690   17.7610 C   0  0  0  0  0  0  0  0  0  0  0  0
   14.8630   33.1050   19.2570 N   0  0  0  0  0  0  0  0  0  0  0  0
   15.3460   31.8390   19.9170 C   0  0  0  0  0  0  0  0  0  0  0  0
   15.6320   34.3490   19.7000 C   0  0  0  0  0  0  0  0  0  0  0  0
   15.4270   34.6640   21.1920 C   0  0  0  0  0  0  0  0  0  0  0  0
   16.6600   34.9910   21.8300 O   0  0  0  0  0  0  0  0  0  0  0  0
   16.6970   36.3080   22.4180 C   0  0  0  0  0  0  0  0  0  0  0  0
   17.1630   36.2330   23.8680 C   0  0  0  0  0  0  0  0  0  0  0  0
   17.4690   37.3790   24.6200 C   0  0  0  0  0  0  0  0  0  0  0  0
   17.9020   37.2720   25.9450 C   0  0  0  0  0  0  0  0  0  0  0  0
   18.0430   36.0190   26.5350 C   0  0  0  0  0  0  0  0  0  0  0  0
   17.7540   34.8700   25.8030 C   0  0  0  0  0  0  0  0  0  0  0  0
   17.3190   34.9760   24.4810 C   0  0  0  0  0  0  0  0  0  0  0  0
   17.5780   37.1880   21.5440 C   0  0  0  0  0  0  0  0  0  0  0  0
   18.2700   36.6340   20.4550 C   0  0  0  0  0  0  0  0  0  0  0  0
   19.1090   37.4270   19.6700 C   0  0  0  0  0  0  0  0  0  0  0  0
   19.2640   38.7810   19.9600 C   0  0  0  0  0  0  0  0  0  0  0  0
   18.5780   39.3470   21.0330 C   0  0  0  0  0  0  0  0  0  0  0  0
   17.7420   38.5560   21.8210 C   0  0  0  0  0  0  0  0  0  0  0  0
   14.9862   31.9084   17.4902 H   0  0  0  0  0  0  0  0  0  0  0  0
   13.9341   33.3575   17.3487 H   0  0  0  0  0  0  0  0  0  0  0  0
   15.7210   33.5415   17.3487 H   0  0  0  0  0  0  0  0  0  0  0  0
   13.8830   33.2280   19.5430 H   0  0  0  0  0  0  0  0  0  0  0  0
   15.3016   31.9553   21.0099 H   0  0  0  0  0  0  0  0  0  0  0  0
   14.7053   30.9987   19.6114 H   0  0  0  0  0  0  0  0  0  0  0  0
   16.3836   31.6390   19.6114 H   0  0  0  0  0  0  0  0  0  0  0  0
   16.7043   34.1852   19.5175 H   0  0  0  0  0  0  0  0  0  0  0  0
   15.2508   35.2032   19.1211 H   0  0  0  0  0  0  0  0  0  0  0  0
   14.7383   35.5166   21.2863 H   0  0  0  0  0  0  0  0  0  0  0  0
   15.0115   33.7701   21.6802 H   0  0  0  0  0  0  0  0  0  0  0  0
   15.6931   36.7562   22.4544 H   0  0  0  0  0  0  0  0  0  0  0  0
   17.3667   38.3733   24.1607 H   0  0  0  0  0  0  0  0  0  0  0  0
   18.1317   38.1796   26.5224 H   0  0  0  0  0  0  0  0  0  0  0  0
   18.3823   35.9366   27.5781 H   0  0  0  0  0  0  0  0  0  0  0  0
   17.8685   33.8791   26.2666 H   0  0  0  0  0  0  0  0  0  0  0  0
   17.0947   34.0631   23.9097 H   0  0  0  0  0  0  0  0  0  0  0  0
   18.1500   35.5664   20.2185 H   0  0  0  0  0  0  0  0  0  0  0  0
   19.6487   36.9821   18.8210 H   0  0  0  0  0  0  0  0  0  0  0  0
   19.9279   39.4033   19.3419 H   0  0  0  0  0  0  0  0  0  0  0  0
   18.6958   40.4172   21.2584 H   0  0  0  0  0  0  0  0  0  0  0  0
   17.2053   39.0078   22.6683 H   0  0  0  0  0  0  0  0  0  0  0  0
  1  2  1  0
  2  3  1  0
  2  4  1  0
  4  5  1  0
  5  6  1  0
  6  7  1  0
  7  8  1  0
  8  9  2  0
  9 10  1  0
 10 11  2  0
 11 12  1  0
 12 13  2  0
  7 14  1  0
 14 15  2  0
 15 16  1  0
 16 17  2  0
 17 18  1  0
 18 19  2  0
 13  8  1  0
 19 14  1  0
  1 20  1  0
  1 21  1  0
  1 22  1  0
  2 23  1  0
  3 24  1  0
  3 25  1  0
  3 26  1  0
  4 27  1  0
  4 28  1  0
  5 29  1  0
  5 30  1  0
  7 31  1  0
  9 32  1  0
 10 33  1  0
 11 34  1  0
 12 35  1  0
 13 36  1  0
 15 37  1  0
 16 38  1  0
 17 39  1  0
 18 40  1  0
 19 41  1  0
M  CHG  1   2   1
M  END
>  <meeko>  (1) 
{"is_sidechain": false}

>  <vina_kcal_mol>  (1) 
-9.492

$$$$
