doxepina
     RDKit          3D

 43 45  0  0  0  0  0  0  0  0999 V2000
   15.2080   33.5930   18.8170 C   0  0  0  0  0  0  0  0  0  0  0  0
   14.6340   32.9520   20.0530 N   0  0  0  0  0  0  0  0  0  0  0  0
   14.7440   31.4550   20.0190 C   0  0  0  0  0  0  0  0  0  0  0  0
   15.1250   33.5780   21.3460 C   0  0  0  0  0  0  0  0  0  0  0  0
   14.8920   35.0880   21.4070 C   0  0  0  0  0  0  0  0  0  0  0  0
   16.0490   35.8580   20.8250 C   0  0  0  0  0  0  0  0  0  0  0  0
   17.0890   36.4020   21.4990 C   0  0  0  0  0  0  0  0  0  0  0  0
   17.9810   37.3400   20.7690 C   0  0  0  0  0  0  0  0  0  0  0  0
   18.5610   36.9430   19.5490 C   0  0  0  0  0  0  0  0  0  0  0  0
   19.4030   37.7980   18.8380 C   0  0  0  0  0  0  0  0  0  0  0  0
   19.6880   39.0610   19.3410 C   0  0  0  0  0  0  0  0  0  0  0  0
   19.1380   39.4650   20.5570 C   0  0  0  0  0  0  0  0  0  0  0  0
   18.2780   38.6200   21.2880 C   0  0  0  0  0  0  0  0  0  0  0  0
   17.7970   39.1400   22.6380 C   0  0  0  0  0  0  0  0  0  0  0  0
   16.6080   38.5520   23.1940 O   0  0  0  0  0  0  0  0  0  0  0  0
   16.9060   37.3450   23.7720 C   0  0  0  0  0  0  0  0  0  0  0  0
   16.8940   37.2360   25.1590 C   0  0  0  0  0  0  0  0  0  0  0  0
   17.2260   36.0160   25.7500 C   0  0  0  0  0  0  0  0  0  0  0  0
   17.5610   34.9180   24.9560 C   0  0  0  0  0  0  0  0  0  0  0  0
   17.5390   35.0260   23.5630 C   0  0  0  0  0  0  0  0  0  0  0  0
   17.1820   36.2380   22.9630 C   0  0  0  0  0  0  0  0  0  0  0  0
   15.9156   34.3831   19.1086 H   0  0  0  0  0  0  0  0  0  0  0  0
   15.7329   32.8329   18.2198 H   0  0  0  0  0  0  0  0  0  0  0  0
   14.3948   34.0312   18.2198 H   0  0  0  0  0  0  0  0  0  0  0  0
   13.6260   33.1580   20.0260 H   0  0  0  0  0  0  0  0  0  0  0  0
   14.7726   31.0660   21.0475 H   0  0  0  0  0  0  0  0  0  0  0  0
   13.8743   31.0353   19.4923 H   0  0  0  0  0  0  0  0  0  0  0  0
   15.6657   31.1669   19.4923 H   0  0  0  0  0  0  0  0  0  0  0  0
   14.5940   33.1075   22.1866 H   0  0  0  0  0  0  0  0  0  0  0  0
   16.2109   33.4110   21.3999 H   0  0  0  0  0  0  0  0  0  0  0  0
   13.9816   35.3308   20.8394 H   0  0  0  0  0  0  0  0  0  0  0  0
   14.7881   35.3749   22.4638 H   0  0  0  0  0  0  0  0  0  0  0  0
   16.0483   35.9927   19.7333 H   0  0  0  0  0  0  0  0  0  0  0  0
   18.3463   35.9408   19.1495 H   0  0  0  0  0  0  0  0  0  0  0  0
   19.8399   37.4732   17.8822 H   0  0  0  0  0  0  0  0  0  0  0  0
   20.3465   39.7413   18.7810 H   0  0  0  0  0  0  0  0  0  0  0  0
   19.3797   40.4621   20.9536 H   0  0  0  0  0  0  0  0  0  0  0  0
   18.6111   38.9814   23.3605 H   0  0  0  0  0  0  0  0  0  0  0  0
   17.5281   40.1904   22.4525 H   0  0  0  0  0  0  0  0  0  0  0  0
   16.6259   38.1015   25.7827 H   0  0  0  0  0  0  0  0  0  0  0  0
   17.2237   35.9194   26.8457 H   0  0  0  0  0  0  0  0  0  0  0  0
   17.8430   33.9653   25.4280 H   0  0  0  0  0  0  0  0  0  0  0  0
   17.8021   34.1591   22.9391 H   0  0  0  0  0  0  0  0  0  0  0  0
  1  2  1  0
  2  3  1  0
  2  4  1  0
  4  5  1  0
  5  6  1  0
  6  7  2  3
  7  8  1  0
  8  9  2  0
  9 10  1  0
 10 11  2  0
 11 12  1  0
 12 13  2  0
 13 14  1  0
 14 15  1  0
 15 16  1  0
 16 17  2  0
 17 18  1  0
 18 19  2  0
 19 20  1  0
 20 21  2  0
 21  7  1  0
 13  8  1  0
 21 16  1  0
  1 22  1  0
  1 23  1  0
  1 24  1  0
  2 25  1  0
  3 26  1  0
  3 27  1  0
  3 28  1  0
  4 29  1  0
  4 30  1  0
  5 31  1  0
  5 32  1  0
  6 33  1  0
  9 34  1  0
 10 35  1  0
 11 36  1  0
 12 37  1  0
 14 38  1  0
 14 39  1  0
 17 40  1  0
 18 41  1  0
 19 42  1  0
 20 43  1  0
M  CHG  1   2   1
M  END
>  <meeko>  (1) 
{"is_sidechain": false}

>  <vina_kcal_mol>  (1) 
-9.482

$$$$
