histamina
     RDKit          3D

 18 18  0  0  0  0  0  0  0  0999 V2000
   16.8690   34.6090   26.4360 N   0  0  0  0  0  0  0  0  0  0  0  0
   18.3100   34.9730   26.3650 C   0  0  0  0  0  0  0  0  0  0  0  0
   18.4810   36.4950   26.3440 C   0  0  0  0  0  0  0  0  0  0  0  0
   17.6990   37.1370   25.2490 C   0  0  0  0  0  0  0  0  0  0  0  0
   17.2740   38.4390   25.1250 C   0  0  0  0  0  0  0  0  0  0  0  0
   16.6200   38.4950   23.9240 N   0  0  0  0  0  0  0  0  0  0  0  0
   16.6720   37.2460   23.3700 C   0  0  0  0  0  0  0  0  0  0  0  0
   17.3150   36.3970   24.1460 N   0  0  0  0  0  0  0  0  0  0  0  0
   16.6220   34.1570   25.5260 H   0  0  0  0  0  0  0  0  0  0  0  0
   16.6660   33.9090   27.1570 H   0  0  0  0  0  0  0  0  0  0  0  0
   16.2510   35.4170   26.5550 H   0  0  0  0  0  0  0  0  0  0  0  0
   18.8302   34.5628   27.2431 H   0  0  0  0  0  0  0  0  0  0  0  0
   18.7362   34.5554   25.4409 H   0  0  0  0  0  0  0  0  0  0  0  0
   18.1409   36.9025   27.3075 H   0  0  0  0  0  0  0  0  0  0  0  0
   19.5452   36.7118   26.1694 H   0  0  0  0  0  0  0  0  0  0  0  0
   17.4272   39.2611   25.8396 H   0  0  0  0  0  0  0  0  0  0  0  0
   16.1830   39.3110   23.5120 H   0  0  0  0  0  0  0  0  0  0  0  0
   16.2316   36.9825   22.3970 H   0  0  0  0  0  0  0  0  0  0  0  0
  1  2  1  0
  2  3  1  0
  3  4  1  0
  4  5  2  0
  5  6  1  0
  6  7  1  0
  7  8  2  0
  8  4  1  0
  1  9  1  0
  1 10  1  0
  1 11  1  0
  2 12  1  0
  2 13  1  0
  3 14  1  0
  3 15  1  0
  5 16  1  0
  6 17  1  0
  7 18  1  0
M  CHG  1   1   1
M  END
>  <meeko>  (1) 
{"is_sidechain": false}

>  <vina_kcal_mol>  (1) 
-4.64

$$$$
