loratadina
     RDKit          3D

 50 53  0  0  0  0  0  0  0  0999 V2000
   14.5000   32.6060   16.6690 C   0  0  0  0  0  0  0  0  0  0  0  0
   14.1910   31.3970   17.5350 C   0  0  0  0  0  0  0  0  0  0  0  0
   14.9960   31.4220   18.7240 O   0  0  0  0  0  0  0  0  0  0  0  0
   14.3850   31.8830   19.8490 C   0  0  0  0  0  0  0  0  0  0  0  0
   13.4330   31.3280   20.3860 O   0  0  0  0  0  0  0  0  0  0  0  0
   14.9690   33.0450   20.3210 N   0  0  0  0  0  0  0  0  0  0  0  0
   14.4600   33.6670   21.5370 C   0  0  0  0  0  0  0  0  0  0  0  0
   15.5600   34.3680   22.3460 C   0  0  0  0  0  0  0  0  0  0  0  0
   16.3690   35.3770   21.5320 C   0  0  0  0  0  0  0  0  0  0  0  0
   17.1960   36.3080   22.0930 C   0  0  0  0  0  0  0  0  0  0  0  0
   17.9820   37.2010   21.2090 C   0  0  0  0  0  0  0  0  0  0  0  0
   18.9040   36.6790   20.2900 C   0  0  0  0  0  0  0  0  0  0  0  0
   19.6380   37.5370   19.4710 C   0  0  0  0  0  0  0  0  0  0  0  0
   19.4440   38.9140   19.5640 C   0  0  0  0  0  0  0  0  0  0  0  0
   20.3530   39.9730   18.5570 Cl  0  0  0  0  0  0  0  0  0  0  0  0
   18.5140   39.4440   20.4610 C   0  0  0  0  0  0  0  0  0  0  0  0
   17.7710   38.5890   21.2880 C   0  0  0  0  0  0  0  0  0  0  0  0
   16.7370   39.1310   22.2450 C   0  0  0  0  0  0  0  0  0  0  0  0
   17.1640   38.9730   23.6940 C   0  0  0  0  0  0  0  0  0  0  0  0
   17.4010   37.5930   24.2740 C   0  0  0  0  0  0  0  0  0  0  0  0
   17.5840   37.5220   25.6680 C   0  0  0  0  0  0  0  0  0  0  0  0
   17.7560   36.2950   26.2990 C   0  0  0  0  0  0  0  0  0  0  0  0
   17.7310   35.1580   25.5170 C   0  0  0  0  0  0  0  0  0  0  0  0
   17.5620   35.1750   24.1800 N   0  0  0  0  0  0  0  0  0  0  0  0
   17.4150   36.3810   23.5660 C   0  0  0  0  0  0  0  0  0  0  0  0
   16.2090   35.1870   20.0260 C   0  0  0  0  0  0  0  0  0  0  0  0
   16.0680   33.7130   19.6330 C   0  0  0  0  0  0  0  0  0  0  0  0
   14.7210   33.4707   17.3120 H   0  0  0  0  0  0  0  0  0  0  0  0
   15.3716   32.3890   16.0339 H   0  0  0  0  0  0  0  0  0  0  0  0
   13.6312   32.8338   16.0339 H   0  0  0  0  0  0  0  0  0  0  0  0
   13.1275   31.4128   17.8155 H   0  0  0  0  0  0  0  0  0  0  0  0
   14.4154   30.4815   16.9679 H   0  0  0  0  0  0  0  0  0  0  0  0
   13.6981   34.4106   21.2601 H   0  0  0  0  0  0  0  0  0  0  0  0
   14.0388   32.8703   22.1677 H   0  0  0  0  0  0  0  0  0  0  0  0
   15.0891   34.8976   23.1873 H   0  0  0  0  0  0  0  0  0  0  0  0
   16.2601   33.5887   22.6815 H   0  0  0  0  0  0  0  0  0  0  0  0
   19.0485   35.5911   20.2150 H   0  0  0  0  0  0  0  0  0  0  0  0
   20.3665   37.1287   18.7551 H   0  0  0  0  0  0  0  0  0  0  0  0
   18.3642   40.5322   20.5189 H   0  0  0  0  0  0  0  0  0  0  0  0
   16.5840   40.1998   22.0345 H   0  0  0  0  0  0  0  0  0  0  0  0
   15.8081   38.5598   22.1005 H   0  0  0  0  0  0  0  0  0  0  0  0
   18.1053   39.5304   23.8090 H   0  0  0  0  0  0  0  0  0  0  0  0
   16.2878   39.3324   24.2535 H   0  0  0  0  0  0  0  0  0  0  0  0
   17.5910   38.4465   26.2640 H   0  0  0  0  0  0  0  0  0  0  0  0
   17.9072   36.2325   27.3868 H   0  0  0  0  0  0  0  0  0  0  0  0
   17.8559   34.1839   26.0125 H   0  0  0  0  0  0  0  0  0  0  0  0
   15.3099   35.7279   19.6956 H   0  0  0  0  0  0  0  0  0  0  0  0
   17.1162   35.5771   19.5414 H   0  0  0  0  0  0  0  0  0  0  0  0
   15.8910   33.6541   18.5489 H   0  0  0  0  0  0  0  0  0  0  0  0
   16.9983   33.2032   19.9241 H   0  0  0  0  0  0  0  0  0  0  0  0
  1  2  1  0
  2  3  1  0
  3  4  1  0
  4  5  2  0
  4  6  1  0
  6  7  1  0
  7  8  1  0
  8  9  1  0
  9 10  2  3
 10 11  1  0
 11 12  1  0
 12 13  2  0
 13 14  1  0
 14 15  1  0
 14 16  2  0
 16 17  1  0
 17 18  1  0
 18 19  1  0
 19 20  1  0
 20 21  1  0
 21 22  2  0
 22 23  1  0
 23 24  2  0
 24 25  1  0
  9 26  1  0
 26 27  1  0
 27  6  1  0
 25 10  1  0
 17 11  2  0
 25 20  2  0
  1 28  1  0
  1 29  1  0
  1 30  1  0
  2 31  1  0
  2 32  1  0
  7 33  1  0
  7 34  1  0
  8 35  1  0
  8 36  1  0
 12 37  1  0
 13 38  1  0
 16 39  1  0
 18 40  1  0
 18 41  1  0
 19 42  1  0
 19 43  1  0
 21 44  1  0
 22 45  1  0
 23 46  1  0
 26 47  1  0
 26 48  1  0
 27 49  1  0
 27 50  1  0
M  END
>  <meeko>  (1) 
{"is_sidechain": false}

>  <vina_kcal_mol>  (1) 
-4.596

$$$$
