prometazina
     RDKit          3D

 41 43  0  0  0  0  0  0  0  0999 V2000
   14.6410   36.1980   21.4760 C   0  0  0  0  0  0  0  0  0  0  0  0
   15.2850   34.8330   21.7050 C   0  0  0  0  0  0  0  0  0  0  0  0
   16.7980   34.8260   21.3160 C   0  0  0  0  0  0  0  0  0  0  0  0
   17.5310   35.9420   21.9640 N   0  0  0  0  0  0  0  0  0  0  0  0
   18.0110   36.9810   21.1230 C   0  0  0  0  0  0  0  0  0  0  0  0
   18.5980   36.6990   19.8760 C   0  0  0  0  0  0  0  0  0  0  0  0
   19.0670   37.7220   19.0470 C   0  0  0  0  0  0  0  0  0  0  0  0
   18.9670   39.0480   19.4510 C   0  0  0  0  0  0  0  0  0  0  0  0
   18.4050   39.3530   20.6870 C   0  0  0  0  0  0  0  0  0  0  0  0
   17.9380   38.3320   21.5260 C   0  0  0  0  0  0  0  0  0  0  0  0
   17.1670   38.8090   23.0630 S   0  0  0  0  0  0  0  0  0  0  0  0
   17.3240   37.3010   24.0060 C   0  0  0  0  0  0  0  0  0  0  0  0
   17.2420   37.3960   25.4020 C   0  0  0  0  0  0  0  0  0  0  0  0
   17.3190   36.2520   26.1920 C   0  0  0  0  0  0  0  0  0  0  0  0
   17.4850   35.0100   25.5910 C   0  0  0  0  0  0  0  0  0  0  0  0
   17.5600   34.9100   24.2000 C   0  0  0  0  0  0  0  0  0  0  0  0
   17.4570   36.0460   23.3760 C   0  0  0  0  0  0  0  0  0  0  0  0
   14.5240   33.7220   20.9660 N   0  0  0  0  0  0  0  0  0  0  0  0
   15.3320   33.0590   19.8890 C   0  0  0  0  0  0  0  0  0  0  0  0
   13.7960   32.7290   21.8220 C   0  0  0  0  0  0  0  0  0  0  0  0
   14.4199   36.6666   22.4464 H   0  0  0  0  0  0  0  0  0  0  0  0
   15.3318   36.8387   20.9083 H   0  0  0  0  0  0  0  0  0  0  0  0
   13.7072   36.0723   20.9083 H   0  0  0  0  0  0  0  0  0  0  0  0
   15.2222   34.6290   22.7841 H   0  0  0  0  0  0  0  0  0  0  0  0
   17.2446   33.8724   21.6343 H   0  0  0  0  0  0  0  0  0  0  0  0
   16.8748   34.9495   20.2257 H   0  0  0  0  0  0  0  0  0  0  0  0
   18.6897   35.6534   19.5470 H   0  0  0  0  0  0  0  0  0  0  0  0
   19.5160   37.4771   18.0731 H   0  0  0  0  0  0  0  0  0  0  0  0
   19.3308   39.8535   18.7961 H   0  0  0  0  0  0  0  0  0  0  0  0
   18.3268   40.4023   21.0077 H   0  0  0  0  0  0  0  0  0  0  0  0
   17.1160   38.3804   25.8764 H   0  0  0  0  0  0  0  0  0  0  0  0
   17.2488   36.3310   27.2869 H   0  0  0  0  0  0  0  0  0  0  0  0
   17.5574   34.1047   26.2116 H   0  0  0  0  0  0  0  0  0  0  0  0
   17.7027   33.9217   23.7385 H   0  0  0  0  0  0  0  0  0  0  0  0
   13.7830   34.2360   20.4600 H   0  0  0  0  0  0  0  0  0  0  0  0
   16.1047   32.4249   20.3481 H   0  0  0  0  0  0  0  0  0  0  0  0
   14.6720   32.4387   19.2647 H   0  0  0  0  0  0  0  0  0  0  0  0
   15.8115   33.8274   19.2647 H   0  0  0  0  0  0  0  0  0  0  0  0
   13.9680   32.9636   22.8828 H   0  0  0  0  0  0  0  0  0  0  0  0
   12.7186   32.7785   21.6055 H   0  0  0  0  0  0  0  0  0  0  0  0
   14.1673   31.7164   21.6055 H   0  0  0  0  0  0  0  0  0  0  0  0
  1  2  1  0
  2  3  1  0
  3  4  1  0
  4  5  1  0
  5  6  2  0
  6  7  1  0
  7  8  2  0
  8  9  1  0
  9 10  2  0
 10 11  1  0
 11 12  1  0
 12 13  2  0
 13 14  1  0
 14 15  2  0
 15 16  1  0
 16 17  2  0
  2 18  1  0
 18 19  1  0
 18 20  1  0
 17  4  1  0
 10  5  1  0
 17 12  1  0
  1 21  1  0
  1 22  1  0
  1 23  1  0
  2 24  1  0
  3 25  1  0
  3 26  1  0
  6 27  1  0
  7 28  1  0
  8 29  1  0
  9 30  1  0
 13 31  1  0
 14 32  1  0
 15 33  1  0
 16 34  1  0
 18 35  1  0
 19 36  1  0
 19 37  1  0
 19 38  1  0
 20 39  1  0
 20 40  1  0
 20 41  1  0
M  CHG  1  18   1
M  END
>  <meeko>  (1) 
{"is_sidechain": false}

>  <vina_kcal_mol>  (1) 
-7.777

$$$$
