captopril
     RDKit          3D

 28 28  0  0  0  0  0  0  0  0999 V2000
   42.6360   34.1370   39.2530 C   0  0  0  0  0  0  0  0  0  0  0  0
   43.6220   34.3920   40.3970 C   0  0  2  0  0  0  0  0  0  0  0  0
   45.0830   34.1210   40.0050 C   0  0  0  0  0  0  0  0  0  0  0  0
   46.3160   34.7720   41.1870 S   0  0  0  0  0  0  0  0  0  0  0  0
   43.2520   33.4660   41.5570 C   0  0  0  0  0  0  0  0  0  0  0  0
   43.4030   32.2420   41.4550 O   0  0  0  0  0  0  0  0  0  0  0  0
   42.6230   34.0160   42.6510 N   0  0  0  0  0  0  0  0  0  0  0  0
   43.1990   35.1350   43.3600 C   0  0  0  0  0  0  0  0  0  0  0  0
   42.4690   35.1260   44.6890 C   0  0  0  0  0  0  0  0  0  0  0  0
   41.0530   34.7200   44.3020 C   0  0  0  0  0  0  0  0  0  0  0  0
   41.2370   33.7610   43.1140 C   0  0  1  0  0  0  0  0  0  0  0  0
   40.0630   34.0760   42.1390 C   0  0  0  0  0  0  0  0  0  0  0  0
   40.0620   35.2600   41.6920 O   0  0  0  0  0  0  0  0  0  0  0  0
   39.2500   33.1340   41.9170 O   0  0  0  0  0  0  0  0  0  0  0  0
   41.6500   33.8820   39.6687 H   0  0  0  0  0  0  0  0  0  0  0  0
   42.5500   35.0425   38.6343 H   0  0  0  0  0  0  0  0  0  0  0  0
   42.9998   33.3034   38.6343 H   0  0  0  0  0  0  0  0  0  0  0  0
   43.5490   35.4550   40.6702 H   0  0  0  0  0  0  0  0  0  0  0  0
   45.2221   33.0326   39.9276 H   0  0  0  0  0  0  0  0  0  0  0  0
   45.2545   34.6444   39.0528 H   0  0  0  0  0  0  0  0  0  0  0  0
   45.6540   34.4320   42.3010 H   0  0  0  0  0  0  0  0  0  0  0  0
   44.2804   34.9943   43.5045 H   0  0  0  0  0  0  0  0  0  0  0  0
   43.0913   36.0864   42.8186 H   0  0  0  0  0  0  0  0  0  0  0  0
   42.9147   34.3949   45.3795 H   0  0  0  0  0  0  0  0  0  0  0  0
   42.5140   36.0917   45.2138 H   0  0  0  0  0  0  0  0  0  0  0  0
   40.5524   34.2106   45.1386 H   0  0  0  0  0  0  0  0  0  0  0  0
   40.4252   35.5863   44.0462 H   0  0  0  0  0  0  0  0  0  0  0  0
   41.1704   32.6778   43.2935 H   0  0  0  0  0  0  0  0  0  0  0  0
  1  2  1  0
  2  3  1  0
  3  4  1  0
  2  5  1  0
  5  6  2  0
  5  7  1  0
  7  8  1  0
  8  9  1  0
  9 10  1  0
 10 11  1  0
 11 12  1  0
 12 13  2  0
 12 14  1  0
 11  7  1  0
  1 15  1  0
  1 16  1  0
  1 17  1  0
  2 18  1  1
  3 19  1  0
  3 20  1  0
  4 21  1  0
  8 22  1  0
  8 23  1  0
  9 24  1  0
  9 25  1  0
 10 26  1  0
 10 27  1  0
 11 28  1  1
M  CHG  1  14  -1
M  END
>  <meeko>  (1) 
{"is_sidechain": false}

>  <vina_kcal_mol>  (1) 
-5.743

$$$$
