enalaprilato
     RDKit          3D

 48 49  0  0  0  0  0  0  0  0999 V2000
   43.4910   32.9610   39.0690 C   0  0  0  0  0  0  0  0  0  0  0  0
   43.8380   32.4760   40.4720 C   0  0  2  0  0  0  0  0  0  0  0  0
   44.9650   33.3190   40.9900 N   0  0  0  0  0  0  0  0  0  0  0  0
   45.2460   34.6350   40.2410 C   0  0  1  0  0  0  0  0  0  0  0  0
   44.7830   35.8060   41.1090 C   0  0  0  0  0  0  0  0  0  0  0  0
   43.3220   36.2200   40.8790 C   0  0  0  0  0  0  0  0  0  0  0  0
   42.3760   35.6370   41.9030 C   0  0  0  0  0  0  0  0  0  0  0  0
   42.8190   35.4050   43.2130 C   0  0  0  0  0  0  0  0  0  0  0  0
   41.9440   34.9030   44.1770 C   0  0  0  0  0  0  0  0  0  0  0  0
   40.6180   34.6300   43.8400 C   0  0  0  0  0  0  0  0  0  0  0  0
   40.1670   34.8580   42.5400 C   0  0  0  0  0  0  0  0  0  0  0  0
   41.0410   35.3600   41.5750 C   0  0  0  0  0  0  0  0  0  0  0  0
   46.7640   34.6710   39.8540 C   0  0  0  0  0  0  0  0  0  0  0  0
   47.6110   34.6910   40.7760 O   0  0  0  0  0  0  0  0  0  0  0  0
   46.8900   34.6780   38.5830 O   0  0  0  0  0  0  0  0  0  0  0  0
   44.2840   31.0070   40.4150 C   0  0  0  0  0  0  0  0  0  0  0  0
   45.2340   30.7090   39.6820 O   0  0  0  0  0  0  0  0  0  0  0  0
   43.6270   30.1010   41.2110 N   0  0  0  0  0  0  0  0  0  0  0  0
   43.0840   30.3280   42.5410 C   0  0  0  0  0  0  0  0  0  0  0  0
   42.1650   29.1410   42.8230 C   0  0  0  0  0  0  0  0  0  0  0  0
   42.5560   28.0970   41.7790 C   0  0  0  0  0  0  0  0  0  0  0  0
   42.9740   28.9400   40.5800 C   0  0  1  0  0  0  0  0  0  0  0  0
   41.6980   29.2910   39.7400 C   0  0  0  0  0  0  0  0  0  0  0  0
   40.5910   28.9670   40.2710 O   0  0  0  0  0  0  0  0  0  0  0  0
   41.9290   29.8330   38.6220 O   0  0  0  0  0  0  0  0  0  0  0  0
   42.8522   33.8539   39.1372 H   0  0  0  0  0  0  0  0  0  0  0  0
   44.4157   33.2121   38.5287 H   0  0  0  0  0  0  0  0  0  0  0  0
   42.9548   32.1669   38.5287 H   0  0  0  0  0  0  0  0  0  0  0  0
   42.9612   32.5578   41.1311 H   0  0  0  0  0  0  0  0  0  0  0  0
   44.8310   33.4890   41.9960 H   0  0  0  0  0  0  0  0  0  0  0  0
   45.8970   32.8490   40.9060 H   0  0  0  0  0  0  0  0  0  0  0  0
   44.6819   34.7118   39.2998 H   0  0  0  0  0  0  0  0  0  0  0  0
   44.8985   35.5198   42.1648 H   0  0  0  0  0  0  0  0  0  0  0  0
   45.4043   36.6704   40.8318 H   0  0  0  0  0  0  0  0  0  0  0  0
   43.2568   37.3171   40.9258 H   0  0  0  0  0  0  0  0  0  0  0  0
   43.0210   35.8330   39.8943 H   0  0  0  0  0  0  0  0  0  0  0  0
   43.8635   35.6202   43.4826 H   0  0  0  0  0  0  0  0  0  0  0  0
   42.2995   34.7226   45.2022 H   0  0  0  0  0  0  0  0  0  0  0  0
   39.9279   34.2347   44.5999 H   0  0  0  0  0  0  0  0  0  0  0  0
   39.1214   34.6419   42.2752 H   0  0  0  0  0  0  0  0  0  0  0  0
   40.6808   35.5395   40.5513 H   0  0  0  0  0  0  0  0  0  0  0  0
   43.8944   30.3700   43.2836 H   0  0  0  0  0  0  0  0  0  0  0  0
   42.5415   31.2831   42.5994 H   0  0  0  0  0  0  0  0  0  0  0  0
   42.3299   28.7547   43.8397 H   0  0  0  0  0  0  0  0  0  0  0  0
   41.1008   29.4131   42.7638 H   0  0  0  0  0  0  0  0  0  0  0  0
   43.3918   27.4770   42.1354 H   0  0  0  0  0  0  0  0  0  0  0  0
   41.7426   27.3934   41.5481 H   0  0  0  0  0  0  0  0  0  0  0  0
   43.6546   28.4564   39.8639 H   0  0  0  0  0  0  0  0  0  0  0  0
  1  2  1  0
  2  3  1  0
  3  4  1  0
  4  5  1  0
  5  6  1  0
  6  7  1  0
  7  8  2  0
  8  9  1  0
  9 10  2  0
 10 11  1  0
 11 12  2  0
  4 13  1  0
 13 14  2  0
 13 15  1  0
  2 16  1  0
 16 17  2  0
 16 18  1  0
 18 19  1  0
 19 20  1  0
 20 21  1  0
 21 22  1  0
 22 23  1  0
 23 24  2  0
 23 25  1  0
 12  7  1  0
 22 18  1  0
  1 26  1  0
  1 27  1  0
  1 28  1  0
  2 29  1  1
  3 30  1  0
  3 31  1  0
  4 32  1  6
  5 33  1  0
  5 34  1  0
  6 35  1  0
  6 36  1  0
  8 37  1  0
  9 38  1  0
 10 39  1  0
 11 40  1  0
 12 41  1  0
 19 42  1  0
 19 43  1  0
 20 44  1  0
 20 45  1  0
 21 46  1  0
 21 47  1  0
 22 48  1  6
M  CHG  3   3   1  15  -1  25  -1
M  END
>  <meeko>  (1) 
{"is_sidechain": false}

>  <vina_kcal_mol>  (1) 
-8.073

$$$$
