enalapril
     RDKit          3D

 55 56  0  0  0  0  0  0  0  0999 V2000
   47.2310   30.6360   39.0010 C   0  0  0  0  0  0  0  0  0  0  0  0
   47.3610   32.0850   38.5730 C   0  0  0  0  0  0  0  0  0  0  0  0
   46.0890   32.7540   38.6820 O   0  0  0  0  0  0  0  0  0  0  0  0
   46.1210   34.0030   39.2260 C   0  0  0  0  0  0  0  0  0  0  0  0
   46.9840   34.8410   39.0160 O   0  0  0  0  0  0  0  0  0  0  0  0
   44.9730   34.1970   40.2250 C   0  0  2  0  0  0  0  0  0  0  0  0
   45.2210   35.3450   41.2160 C   0  0  0  0  0  0  0  0  0  0  0  0
   44.1190   36.4130   41.2430 C   0  0  0  0  0  0  0  0  0  0  0  0
   42.8620   35.8570   41.8610 C   0  0  0  0  0  0  0  0  0  0  0  0
   41.6860   35.7380   41.1090 C   0  0  0  0  0  0  0  0  0  0  0  0
   40.5380   35.1860   41.6790 C   0  0  0  0  0  0  0  0  0  0  0  0
   40.5560   34.7440   42.9990 C   0  0  0  0  0  0  0  0  0  0  0  0
   41.7200   34.8590   43.7560 C   0  0  0  0  0  0  0  0  0  0  0  0
   42.8700   35.4110   43.1900 C   0  0  0  0  0  0  0  0  0  0  0  0
   44.6460   32.9500   40.9790 N   0  0  0  0  0  0  0  0  0  0  0  0
   43.2990   32.2770   40.8220 C   0  0  1  0  0  0  0  0  0  0  0  0
   42.7340   32.6050   39.4560 C   0  0  0  0  0  0  0  0  0  0  0  0
   43.5000   30.7990   41.2360 C   0  0  0  0  0  0  0  0  0  0  0  0
   43.9590   30.0450   40.3630 O   0  0  0  0  0  0  0  0  0  0  0  0
   42.9100   30.2990   42.3630 N   0  0  0  0  0  0  0  0  0  0  0  0
   42.8130   30.8600   43.6940 C   0  0  0  0  0  0  0  0  0  0  0  0
   42.4150   29.6560   44.5310 C   0  0  0  0  0  0  0  0  0  0  0  0
   41.4260   28.9290   43.6230 C   0  0  0  0  0  0  0  0  0  0  0  0
   41.9340   29.1960   42.2020 C   0  0  1  0  0  0  0  0  0  0  0  0
   40.7120   29.5490   41.2800 C   0  0  0  0  0  0  0  0  0  0  0  0
   39.8360   30.3160   41.8090 O   0  0  0  0  0  0  0  0  0  0  0  0
   40.7250   29.0520   40.1280 O   0  0  0  0  0  0  0  0  0  0  0  0
   47.2257   30.5772   40.0994 H   0  0  0  0  0  0  0  0  0  0  0  0
   46.2919   30.2201   38.6070 H   0  0  0  0  0  0  0  0  0  0  0  0
   48.0810   30.0596   38.6070 H   0  0  0  0  0  0  0  0  0  0  0  0
   48.0935   32.5902   39.2197 H   0  0  0  0  0  0  0  0  0  0  0  0
   47.6958   32.1205   37.5258 H   0  0  0  0  0  0  0  0  0  0  0  0
   44.1080   34.4654   39.6007 H   0  0  0  0  0  0  0  0  0  0  0  0
   45.3074   34.9151   42.2248 H   0  0  0  0  0  0  0  0  0  0  0  0
   46.1391   35.8517   40.8837 H   0  0  0  0  0  0  0  0  0  0  0  0
   44.4634   37.2740   41.8347 H   0  0  0  0  0  0  0  0  0  0  0  0
   43.9006   36.7258   40.2113 H   0  0  0  0  0  0  0  0  0  0  0  0
   41.6674   36.0813   40.0641 H   0  0  0  0  0  0  0  0  0  0  0  0
   39.6168   35.1000   41.0840 H   0  0  0  0  0  0  0  0  0  0  0  0
   39.6514   34.3041   43.4442 H   0  0  0  0  0  0  0  0  0  0  0  0
   41.7326   34.5144   44.8006 H   0  0  0  0  0  0  0  0  0  0  0  0
   43.7879   35.4966   43.7901 H   0  0  0  0  0  0  0  0  0  0  0  0
   44.7970   33.0610   41.9960 H   0  0  0  0  0  0  0  0  0  0  0  0
   45.3800   32.1780   40.8910 H   0  0  0  0  0  0  0  0  0  0  0  0
   42.4970   32.6413   41.4808 H   0  0  0  0  0  0  0  0  0  0  0  0
   41.7881   33.1542   39.5727 H   0  0  0  0  0  0  0  0  0  0  0  0
   43.4527   33.2263   38.9015 H   0  0  0  0  0  0  0  0  0  0  0  0
   42.5508   31.6728   38.9015 H   0  0  0  0  0  0  0  0  0  0  0  0
   43.7787   31.2712   44.0233 H   0  0  0  0  0  0  0  0  0  0  0  0
   42.1035   31.6975   43.7659 H   0  0  0  0  0  0  0  0  0  0  0  0
   43.2864   29.0234   44.7556 H   0  0  0  0  0  0  0  0  0  0  0  0
   41.9923   29.9253   45.5102 H   0  0  0  0  0  0  0  0  0  0  0  0
   41.4231   27.8501   43.8376 H   0  0  0  0  0  0  0  0  0  0  0  0
   40.3931   29.2784   43.7683 H   0  0  0  0  0  0  0  0  0  0  0  0
   42.4208   28.3371   41.7169 H   0  0  0  0  0  0  0  0  0  0  0  0
  1  2  1  0
  2  3  1  0
  3  4  1  0
  4  5  2  0
  4  6  1  0
  6  7  1  0
  7  8  1  0
  8  9  1  0
  9 10  2  0
 10 11  1  0
 11 12  2  0
 12 13  1  0
 13 14  2  0
  6 15  1  0
 15 16  1  0
 16 17  1  0
 16 18  1  0
 18 19  2  0
 18 20  1  0
 20 21  1  0
 21 22  1  0
 22 23  1  0
 23 24  1  0
 24 25  1  0
 25 26  2  0
 25 27  1  0
 14  9  1  0
 24 20  1  0
  1 28  1  0
  1 29  1  0
  1 30  1  0
  2 31  1  0
  2 32  1  0
  6 33  1  6
  7 34  1  0
  7 35  1  0
  8 36  1  0
  8 37  1  0
 10 38  1  0
 11 39  1  0
 12 40  1  0
 13 41  1  0
 14 42  1  0
 15 43  1  0
 15 44  1  0
 16 45  1  1
 17 46  1  0
 17 47  1  0
 17 48  1  0
 21 49  1  0
 21 50  1  0
 22 51  1  0
 22 52  1  0
 23 53  1  0
 23 54  1  0
 24 55  1  6
M  CHG  2  15   1  27  -1
M  END
>  <meeko>  (1) 
{"is_sidechain": false}

>  <vina_kcal_mol>  (1) 
-7.86

$$$$
