fosinoprilato
     RDKit          3D

 63 65  0  0  0  0  0  0  0  0999 V2000
   39.8190   29.6560   42.5950 O   0  0  0  0  0  0  0  0  0  0  0  0
   40.4890   29.4460   41.5360 C   0  0  0  0  0  0  0  0  0  0  0  0
   40.1270   28.8970   40.4550 O   0  0  0  0  0  0  0  0  0  0  0  0
   42.0000   29.8640   41.5880 C   0  0  2  0  0  0  0  0  0  0  0  0
   42.3170   30.4290   40.1920 C   0  0  0  0  0  0  0  0  0  0  0  0
   43.6900   29.8320   39.8120 C   0  0  1  0  0  0  0  0  0  0  0  0
   44.8850   30.7110   40.2990 C   0  0  0  0  0  0  0  0  0  0  0  0
   46.0910   30.6330   39.3380 C   0  0  0  0  0  0  0  0  0  0  0  0
   47.2360   31.5580   39.7500 C   0  0  0  0  0  0  0  0  0  0  0  0
   46.7720   33.0000   39.9080 C   0  0  0  0  0  0  0  0  0  0  0  0
   45.6080   33.0900   40.8830 C   0  0  0  0  0  0  0  0  0  0  0  0
   44.4520   32.1850   40.4600 C   0  0  0  0  0  0  0  0  0  0  0  0
   43.5920   28.4590   40.4850 C   0  0  0  0  0  0  0  0  0  0  0  0
   42.9600   28.7550   41.7500 N   0  0  0  0  0  0  0  0  0  0  0  0
   42.8410   27.9250   42.8510 C   0  0  0  0  0  0  0  0  0  0  0  0
   42.1200   26.9280   42.8620 O   0  0  0  0  0  0  0  0  0  0  0  0
   43.6570   28.3270   44.0390 C   0  0  0  0  0  0  0  0  0  0  0  0
   42.7270   29.0310   45.3760 P   0  0  0  0  0  0  0  0  0  0  0  0
   42.9900   28.4370   46.7310 O   0  0  0  0  0  0  0  0  0  0  0  0
   41.2100   28.6140   44.9660 O   0  0  0  0  0  0  0  0  0  0  0  0
   42.7080   30.8150   45.2820 C   0  0  0  0  0  0  0  0  0  0  0  0
   43.6550   31.4190   44.2440 C   0  0  0  0  0  0  0  0  0  0  0  0
   44.0230   32.8900   44.4760 C   0  0  0  0  0  0  0  0  0  0  0  0
   42.8500   33.8760   44.3890 C   0  0  0  0  0  0  0  0  0  0  0  0
   42.6840   34.5030   43.0220 C   0  0  0  0  0  0  0  0  0  0  0  0
   41.7190   34.0120   42.1310 C   0  0  0  0  0  0  0  0  0  0  0  0
   41.5680   34.5840   40.8650 C   0  0  0  0  0  0  0  0  0  0  0  0
   42.3800   35.6520   40.4790 C   0  0  0  0  0  0  0  0  0  0  0  0
   43.3450   36.1470   41.3570 C   0  0  0  0  0  0  0  0  0  0  0  0
   43.4940   35.5760   42.6220 C   0  0  0  0  0  0  0  0  0  0  0  0
   42.1107   30.5391   42.4494 H   0  0  0  0  0  0  0  0  0  0  0  0
   41.5489   30.1199   39.4678 H   0  0  0  0  0  0  0  0  0  0  0  0
   42.3334   31.5289   40.1891 H   0  0  0  0  0  0  0  0  0  0  0  0
   43.8930   29.7742   38.7324 H   0  0  0  0  0  0  0  0  0  0  0  0
   45.1961   30.3103   41.2750 H   0  0  0  0  0  0  0  0  0  0  0  0
   46.4629   29.5979   39.3237 H   0  0  0  0  0  0  0  0  0  0  0  0
   45.7451   30.9554   38.3448 H   0  0  0  0  0  0  0  0  0  0  0  0
   47.6472   31.2096   40.7089 H   0  0  0  0  0  0  0  0  0  0  0  0
   47.9988   31.5301   38.9580 H   0  0  0  0  0  0  0  0  0  0  0  0
   47.6070   33.6080   40.2864 H   0  0  0  0  0  0  0  0  0  0  0  0
   46.4400   33.3726   38.9277 H   0  0  0  0  0  0  0  0  0  0  0  0
   45.9538   32.7849   41.8817 H   0  0  0  0  0  0  0  0  0  0  0  0
   45.2467   34.1289   40.8942 H   0  0  0  0  0  0  0  0  0  0  0  0
   43.6629   32.2397   41.2244 H   0  0  0  0  0  0  0  0  0  0  0  0
   44.0918   32.5369   39.4821 H   0  0  0  0  0  0  0  0  0  0  0  0
   42.9761   27.7703   39.8881 H   0  0  0  0  0  0  0  0  0  0  0  0
   44.5674   27.9628   40.5961 H   0  0  0  0  0  0  0  0  0  0  0  0
   44.1758   27.4333   44.4162 H   0  0  0  0  0  0  0  0  0  0  0  0
   44.3437   29.1130   43.6916 H   0  0  0  0  0  0  0  0  0  0  0  0
   41.1450   27.6570   44.7770 H   0  0  0  0  0  0  0  0  0  0  0  0
   41.6842   31.1326   45.0351 H   0  0  0  0  0  0  0  0  0  0  0  0
   43.0544   31.1775   46.2611 H   0  0  0  0  0  0  0  0  0  0  0  0
   44.5844   30.8307   44.2477 H   0  0  0  0  0  0  0  0  0  0  0  0
   43.1187   31.3854   43.2842 H   0  0  0  0  0  0  0  0  0  0  0  0
   44.4670   32.9762   45.4787 H   0  0  0  0  0  0  0  0  0  0  0  0
   44.7145   33.1643   43.6657 H   0  0  0  0  0  0  0  0  0  0  0  0
   41.9240   33.3374   44.6390 H   0  0  0  0  0  0  0  0  0  0  0  0
   43.0631   34.6929   45.0942 H   0  0  0  0  0  0  0  0  0  0  0  0
   41.0765   33.1709   42.4306 H   0  0  0  0  0  0  0  0  0  0  0  0
   40.8087   34.1924   40.1720 H   0  0  0  0  0  0  0  0  0  0  0  0
   42.2591   36.1031   39.4831 H   0  0  0  0  0  0  0  0  0  0  0  0
   43.9876   36.9863   41.0526 H   0  0  0  0  0  0  0  0  0  0  0  0
   44.2541   35.9714   43.3119 H   0  0  0  0  0  0  0  0  0  0  0  0
  1  2  2  0
  2  3  1  0
  2  4  1  0
  4  5  1  0
  5  6  1  0
  6  7  1  0
  7  8  1  0
  8  9  1  0
  9 10  1  0
 10 11  1  0
 11 12  1  0
  6 13  1  0
 13 14  1  0
 14 15  1  0
 15 16  2  0
 15 17  1  0
 17 18  1  0
 18 19  2  0
 18 20  1  0
 18 21  1  0
 21 22  1  0
 22 23  1  0
 23 24  1  0
 24 25  1  0
 25 26  2  0
 26 27  1  0
 27 28  2  0
 28 29  1  0
 29 30  2  0
 14  4  1  0
 30 25  1  0
 12  7  1  0
  4 31  1  1
  5 32  1  0
  5 33  1  0
  6 34  1  6
  7 35  1  0
  8 36  1  0
  8 37  1  0
  9 38  1  0
  9 39  1  0
 10 40  1  0
 10 41  1  0
 11 42  1  0
 11 43  1  0
 12 44  1  0
 12 45  1  0
 13 46  1  0
 13 47  1  0
 17 48  1  0
 17 49  1  0
 20 50  1  0
 21 51  1  0
 21 52  1  0
 22 53  1  0
 22 54  1  0
 23 55  1  0
 23 56  1  0
 24 57  1  0
 24 58  1  0
 26 59  1  0
 27 60  1  0
 28 61  1  0
 29 62  1  0
 30 63  1  0
M  CHG  1   3  -1
M  END
>  <meeko>  (1) 
{"is_sidechain": false}

>  <vina_kcal_mol>  (1) 
-7.857

$$$$
