lisinopril
     RDKit          3D

 60 61  0  0  0  0  0  0  0  0999 V2000
   46.4370   29.3000   36.2450 N   0  0  0  0  0  0  0  0  0  0  0  0
   47.7270   29.8640   36.6540 C   0  0  0  0  0  0  0  0  0  0  0  0
   47.7590   30.1990   38.1440 C   0  0  0  0  0  0  0  0  0  0  0  0
   46.9750   31.4480   38.5940 C   0  0  0  0  0  0  0  0  0  0  0  0
   45.5150   31.1830   38.9990 C   0  0  0  0  0  0  0  0  0  0  0  0
   44.6200   32.4110   39.3020 C   0  0  2  0  0  0  0  0  0  0  0  0
   45.1470   33.2180   40.4570 N   0  0  0  0  0  0  0  0  0  0  0  0
   45.6920   34.6120   40.2210 C   0  0  1  0  0  0  0  0  0  0  0  0
   45.1330   35.5930   41.2510 C   0  0  0  0  0  0  0  0  0  0  0  0
   43.7640   36.1920   40.9060 C   0  0  0  0  0  0  0  0  0  0  0  0
   42.6990   35.6590   41.8360 C   0  0  0  0  0  0  0  0  0  0  0  0
   41.3920   35.4790   41.3660 C   0  0  0  0  0  0  0  0  0  0  0  0
   40.3930   35.0180   42.2230 C   0  0  0  0  0  0  0  0  0  0  0  0
   40.6870   34.7450   43.5570 C   0  0  0  0  0  0  0  0  0  0  0  0
   41.9810   34.9330   44.0370 C   0  0  0  0  0  0  0  0  0  0  0  0
   42.9870   35.3900   43.1800 C   0  0  0  0  0  0  0  0  0  0  0  0
   47.2330   34.6520   40.2660 C   0  0  0  0  0  0  0  0  0  0  0  0
   47.8350   34.6140   41.3670 O   0  0  0  0  0  0  0  0  0  0  0  0
   47.7910   34.9690   39.1590 O   0  0  0  0  0  0  0  0  0  0  0  0
   43.1440   32.0150   39.5880 C   0  0  0  0  0  0  0  0  0  0  0  0
   42.2590   32.3220   38.7810 O   0  0  0  0  0  0  0  0  0  0  0  0
   42.8510   31.2640   40.7040 N   0  0  0  0  0  0  0  0  0  0  0  0
   42.3480   31.8940   41.9080 C   0  0  0  0  0  0  0  0  0  0  0  0
   42.5600   30.8450   42.9810 C   0  0  0  0  0  0  0  0  0  0  0  0
   42.2480   29.5460   42.2490 C   0  0  0  0  0  0  0  0  0  0  0  0
   42.7640   29.7800   40.8210 C   0  0  1  0  0  0  0  0  0  0  0  0
   41.8050   29.0400   39.8460 C   0  0  0  0  0  0  0  0  0  0  0  0
   42.3740   28.4740   38.8570 O   0  0  0  0  0  0  0  0  0  0  0  0
   40.5920   29.0030   40.1750 O   0  0  0  0  0  0  0  0  0  0  0  0
   45.5900   29.8210   36.4670 H   0  0  0  0  0  0  0  0  0  0  0  0
   46.2910   28.3220   36.6030 H   0  0  0  0  0  0  0  0  0  0  0  0
   46.4640   29.0710   35.2310 H   0  0  0  0  0  0  0  0  0  0  0  0
   48.5191   29.1321   36.4375 H   0  0  0  0  0  0  0  0  0  0  0  0
   47.8829   30.7971   36.0927 H   0  0  0  0  0  0  0  0  0  0  0  0
   47.3490   29.3352   38.6879 H   0  0  0  0  0  0  0  0  0  0  0  0
   48.8124   30.4261   38.3648 H   0  0  0  0  0  0  0  0  0  0  0  0
   47.4957   31.8856   39.4585 H   0  0  0  0  0  0  0  0  0  0  0  0
   46.9375   32.1197   37.7237 H   0  0  0  0  0  0  0  0  0  0  0  0
   45.0416   30.6256   38.1773 H   0  0  0  0  0  0  0  0  0  0  0  0
   45.5840   30.6450   39.9560 H   0  0  0  0  0  0  0  0  0  0  0  0
   44.6458   33.0265   38.3907 H   0  0  0  0  0  0  0  0  0  0  0  0
   45.8480   32.6750   40.9820 H   0  0  0  0  0  0  0  0  0  0  0  0
   44.3150   33.2760   41.1150 H   0  0  0  0  0  0  0  0  0  0  0  0
   45.3703   34.9083   39.2117 H   0  0  0  0  0  0  0  0  0  0  0  0
   45.0406   35.0631   42.2105 H   0  0  0  0  0  0  0  0  0  0  0  0
   45.8370   36.4377   41.2817 H   0  0  0  0  0  0  0  0  0  0  0  0
   43.8137   37.2866   41.0033 H   0  0  0  0  0  0  0  0  0  0  0  0
   43.5051   35.9124   39.8741 H   0  0  0  0  0  0  0  0  0  0  0  0
   41.1523   35.7023   40.3159 H   0  0  0  0  0  0  0  0  0  0  0  0
   39.3708   34.8697   41.8448 H   0  0  0  0  0  0  0  0  0  0  0  0
   39.8976   34.3811   44.2311 H   0  0  0  0  0  0  0  0  0  0  0  0
   42.2118   34.7217   45.0915 H   0  0  0  0  0  0  0  0  0  0  0  0
   44.0076   35.5387   43.5625 H   0  0  0  0  0  0  0  0  0  0  0  0
   42.9140   32.8089   42.1373 H   0  0  0  0  0  0  0  0  0  0  0  0
   41.2964   32.2040   41.8182 H   0  0  0  0  0  0  0  0  0  0  0  0
   43.5978   30.8551   43.3454 H   0  0  0  0  0  0  0  0  0  0  0  0
   41.9366   31.0026   43.8735 H   0  0  0  0  0  0  0  0  0  0  0  0
   42.7707   28.6994   42.7181 H   0  0  0  0  0  0  0  0  0  0  0  0
   41.1766   29.2977   42.2728 H   0  0  0  0  0  0  0  0  0  0  0  0
   43.7554   29.3732   40.5727 H   0  0  0  0  0  0  0  0  0  0  0  0
  1  2  1  0
  2  3  1  0
  3  4  1  0
  4  5  1  0
  5  6  1  0
  6  7  1  0
  7  8  1  0
  8  9  1  0
  9 10  1  0
 10 11  1  0
 11 12  2  0
 12 13  1  0
 13 14  2  0
 14 15  1  0
 15 16  2  0
  8 17  1  0
 17 18  2  0
 17 19  1  0
  6 20  1  0
 20 21  2  0
 20 22  1  0
 22 23  1  0
 23 24  1  0
 24 25  1  0
 25 26  1  0
 26 27  1  0
 27 28  2  0
 27 29  1  0
 16 11  1  0
 26 22  1  0
  1 30  1  0
  1 31  1  0
  1 32  1  0
  2 33  1  0
  2 34  1  0
  3 35  1  0
  3 36  1  0
  4 37  1  0
  4 38  1  0
  5 39  1  0
  5 40  1  0
  6 41  1  6
  7 42  1  0
  7 43  1  0
  8 44  1  6
  9 45  1  0
  9 46  1  0
 10 47  1  0
 10 48  1  0
 12 49  1  0
 13 50  1  0
 14 51  1  0
 15 52  1  0
 16 53  1  0
 23 54  1  0
 23 55  1  0
 24 56  1  0
 24 57  1  0
 25 58  1  0
 25 59  1  0
 26 60  1  1
M  CHG  4   1   1   7   1  19  -1  29  -1
M  END
>  <meeko>  (1) 
{"is_sidechain": false}

>  <vina_kcal_mol>  (1) 
-8.302

$$$$
