perindoprilato
     RDKit          3D

 51 52  0  0  0  0  0  0  0  0999 V2000
   44.9460   30.6000   38.6420 C   0  0  0  0  0  0  0  0  0  0  0  0
   44.9700   30.2870   40.1310 C   0  0  0  0  0  0  0  0  0  0  0  0
   43.9570   29.1910   40.4840 C   0  0  0  0  0  0  0  0  0  0  0  0
   42.5810   29.6980   40.9360 C   0  0  2  0  0  0  0  0  0  0  0  0
   42.2580   29.2820   42.3700 N   0  0  0  0  0  0  0  0  0  0  0  0
   42.0290   30.2890   43.4860 C   0  0  1  0  0  0  0  0  0  0  0  0
   43.2730   30.3130   44.3570 C   0  0  0  0  0  0  0  0  0  0  0  0
   41.5720   31.6510   42.8880 C   0  0  0  0  0  0  0  0  0  0  0  0
   40.4670   31.6890   42.3240 O   0  0  0  0  0  0  0  0  0  0  0  0
   42.3330   32.7950   42.9760 N   0  0  0  0  0  0  0  0  0  0  0  0
   42.2050   33.9440   43.9160 C   0  0  2  0  0  0  0  0  0  0  0  0
   40.8570   34.7180   43.9720 C   0  0  0  0  0  0  0  0  0  0  0  0
   40.4500   35.0160   45.1300 O   0  0  0  0  0  0  0  0  0  0  0  0
   40.3660   35.0260   42.8510 O   0  0  0  0  0  0  0  0  0  0  0  0
   43.2920   34.9310   43.4630 C   0  0  0  0  0  0  0  0  0  0  0  0
   44.3240   34.0320   42.7800 C   0  0  2  0  0  0  0  0  0  0  0  0
   45.3270   34.7660   41.8950 C   0  0  0  0  0  0  0  0  0  0  0  0
   44.7460   35.2390   40.5670 C   0  0  0  0  0  0  0  0  0  0  0  0
   44.0400   34.1050   39.8350 C   0  0  0  0  0  0  0  0  0  0  0  0
   42.9260   33.5110   40.6870 C   0  0  0  0  0  0  0  0  0  0  0  0
   43.4410   33.0150   42.0480 C   0  0  2  0  0  0  0  0  0  0  0  0
   41.4720   29.1700   39.9560 C   0  0  0  0  0  0  0  0  0  0  0  0
   40.5490   28.4760   40.4450 O   0  0  0  0  0  0  0  0  0  0  0  0
   41.6850   29.5780   38.7690 O   0  0  0  0  0  0  0  0  0  0  0  0
   44.8626   31.6872   38.4972 H   0  0  0  0  0  0  0  0  0  0  0  0
   45.8745   30.2382   38.1762 H   0  0  0  0  0  0  0  0  0  0  0  0
   44.0835   30.1008   38.1762 H   0  0  0  0  0  0  0  0  0  0  0  0
   45.9783   29.9469   40.4099 H   0  0  0  0  0  0  0  0  0  0  0  0
   44.7019   31.1999   40.6831 H   0  0  0  0  0  0  0  0  0  0  0  0
   43.8126   28.5609   39.5940 H   0  0  0  0  0  0  0  0  0  0  0  0
   44.3801   28.6472   41.3415 H   0  0  0  0  0  0  0  0  0  0  0  0
   42.6050   30.7975   40.9120 H   0  0  0  0  0  0  0  0  0  0  0  0
   41.3300   28.8300   42.1980 H   0  0  0  0  0  0  0  0  0  0  0  0
   42.8080   28.4690   42.6520 H   0  0  0  0  0  0  0  0  0  0  0  0
   41.2008   30.0087   44.1535 H   0  0  0  0  0  0  0  0  0  0  0  0
   42.9787   30.3073   45.4169 H   0  0  0  0  0  0  0  0  0  0  0  0
   43.8880   29.4266   44.1425 H   0  0  0  0  0  0  0  0  0  0  0  0
   43.8533   31.2225   44.1425 H   0  0  0  0  0  0  0  0  0  0  0  0
   42.2885   33.5239   44.9292 H   0  0  0  0  0  0  0  0  0  0  0  0
   42.8840   35.6691   42.7568 H   0  0  0  0  0  0  0  0  0  0  0  0
   43.7143   35.5159   44.2934 H   0  0  0  0  0  0  0  0  0  0  0  0
   45.0159   33.5593   43.4926 H   0  0  0  0  0  0  0  0  0  0  0  0
   45.6963   35.6445   42.4444 H   0  0  0  0  0  0  0  0  0  0  0  0
   46.1279   34.0504   41.6573 H   0  0  0  0  0  0  0  0  0  0  0  0
   44.0234   36.0457   40.7594 H   0  0  0  0  0  0  0  0  0  0  0  0
   45.5720   35.5980   39.9355 H   0  0  0  0  0  0  0  0  0  0  0  0
   43.6090   34.4940   38.9007 H   0  0  0  0  0  0  0  0  0  0  0  0
   44.7757   33.3153   39.6224 H   0  0  0  0  0  0  0  0  0  0  0  0
   42.1600   34.2819   40.8571 H   0  0  0  0  0  0  0  0  0  0  0  0
   42.5101   32.6476   40.1470 H   0  0  0  0  0  0  0  0  0  0  0  0
   44.0048   32.1035   41.8003 H   0  0  0  0  0  0  0  0  0  0  0  0
  1  2  1  0
  2  3  1  0
  3  4  1  0
  4  5  1  0
  5  6  1  0
  6  7  1  0
  6  8  1  0
  8  9  2  0
  8 10  1  0
 10 11  1  0
 11 12  1  0
 12 13  2  0
 12 14  1  0
 11 15  1  0
 15 16  1  0
 16 17  1  0
 17 18  1  0
 18 19  1  0
 19 20  1  0
 20 21  1  0
  4 22  1  0
 22 23  2  0
 22 24  1  0
 21 10  1  0
 21 16  1  0
  1 25  1  0
  1 26  1  0
  1 27  1  0
  2 28  1  0
  2 29  1  0
  3 30  1  0
  3 31  1  0
  4 32  1  1
  5 33  1  0
  5 34  1  0
  6 35  1  1
  7 36  1  0
  7 37  1  0
  7 38  1  0
 11 39  1  1
 15 40  1  0
 15 41  1  0
 16 42  1  1
 17 43  1  0
 17 44  1  0
 18 45  1  0
 18 46  1  0
 19 47  1  0
 19 48  1  0
 20 49  1  0
 20 50  1  0
 21 51  1  6
M  CHG  3   5   1  14  -1  24  -1
M  END
>  <meeko>  (1) 
{"is_sidechain": false}

>  <vina_kcal_mol>  (1) 
-7.412

$$$$
