ramiprilato
     RDKit          3D

 55 57  0  0  0  0  0  0  0  0999 V2000
   42.8630   32.5920   38.9720 C   0  0  0  0  0  0  0  0  0  0  0  0
   43.3670   32.1420   40.3370 C   0  0  2  0  0  0  0  0  0  0  0  0
   44.7670   32.6680   40.5560 N   0  0  0  0  0  0  0  0  0  0  0  0
   45.1980   34.0360   40.0160 C   0  0  1  0  0  0  0  0  0  0  0  0
   45.4550   34.9780   41.1960 C   0  0  0  0  0  0  0  0  0  0  0  0
   44.4650   36.1520   41.2060 C   0  0  0  0  0  0  0  0  0  0  0  0
   43.1310   35.7510   41.7880 C   0  0  0  0  0  0  0  0  0  0  0  0
   41.9880   35.6320   40.9880 C   0  0  0  0  0  0  0  0  0  0  0  0
   40.7730   35.2320   41.5530 C   0  0  0  0  0  0  0  0  0  0  0  0
   40.6940   34.9480   42.9180 C   0  0  0  0  0  0  0  0  0  0  0  0
   41.8280   35.0600   43.7210 C   0  0  0  0  0  0  0  0  0  0  0  0
   43.0420   35.4580   43.1580 C   0  0  0  0  0  0  0  0  0  0  0  0
   46.5290   33.8770   39.1920 C   0  0  0  0  0  0  0  0  0  0  0  0
   47.0880   34.9210   38.7810 O   0  0  0  0  0  0  0  0  0  0  0  0
   46.8640   32.6510   39.1120 O   0  0  0  0  0  0  0  0  0  0  0  0
   43.2830   30.6060   40.5200 C   0  0  0  0  0  0  0  0  0  0  0  0
   43.6590   29.8640   39.6040 O   0  0  0  0  0  0  0  0  0  0  0  0
   42.8030   30.0750   41.6990 N   0  0  0  0  0  0  0  0  0  0  0  0
   41.7290   29.0630   41.8870 C   0  0  2  0  0  0  0  0  0  0  0  0
   40.3880   29.3100   41.1500 C   0  0  0  0  0  0  0  0  0  0  0  0
   39.5610   30.0670   41.7300 O   0  0  0  0  0  0  0  0  0  0  0  0
   40.3460   28.8260   39.9810 O   0  0  0  0  0  0  0  0  0  0  0  0
   41.4920   29.0550   43.4010 C   0  0  0  0  0  0  0  0  0  0  0  0
   42.8610   29.4060   43.9900 C   0  0  2  0  0  0  0  0  0  0  0  0
   42.7910   30.1820   45.3120 C   0  0  0  0  0  0  0  0  0  0  0  0
   43.3800   31.5600   45.0120 C   0  0  0  0  0  0  0  0  0  0  0  0
   43.1660   31.7560   43.5190 C   0  0  0  0  0  0  0  0  0  0  0  0
   43.4610   30.3660   42.9570 C   0  0  2  0  0  0  0  0  0  0  0  0
   42.0483   33.3194   39.1035 H   0  0  0  0  0  0  0  0  0  0  0  0
   43.6865   33.0608   38.4133 H   0  0  0  0  0  0  0  0  0  0  0  0
   42.4901   31.7209   38.4133 H   0  0  0  0  0  0  0  0  0  0  0  0
   42.7076   32.5661   41.1086 H   0  0  0  0  0  0  0  0  0  0  0  0
   45.1060   32.5240   41.5110 H   0  0  0  0  0  0  0  0  0  0  0  0
   45.4240   32.0600   40.0070 H   0  0  0  0  0  0  0  0  0  0  0  0
   44.4075   34.4446   39.3694 H   0  0  0  0  0  0  0  0  0  0  0  0
   45.3488   34.4131   42.1339 H   0  0  0  0  0  0  0  0  0  0  0  0
   46.4719   35.3854   41.0968 H   0  0  0  0  0  0  0  0  0  0  0  0
   44.8866   36.9690   41.8100 H   0  0  0  0  0  0  0  0  0  0  0  0
   44.3034   36.4738   40.1666 H   0  0  0  0  0  0  0  0  0  0  0  0
   42.0460   35.8538   39.9121 H   0  0  0  0  0  0  0  0  0  0  0  0
   39.8774   35.1408   40.9208 H   0  0  0  0  0  0  0  0  0  0  0  0
   39.7363   34.6357   43.3599 H   0  0  0  0  0  0  0  0  0  0  0  0
   41.7664   34.8353   44.7960 H   0  0  0  0  0  0  0  0  0  0  0  0
   43.9361   35.5427   43.7931 H   0  0  0  0  0  0  0  0  0  0  0  0
   42.0680   28.1133   41.4476 H   0  0  0  0  0  0  0  0  0  0  0  0
   40.7401   29.8066   43.6834 H   0  0  0  0  0  0  0  0  0  0  0  0
   41.1082   28.0906   43.7652 H   0  0  0  0  0  0  0  0  0  0  0  0
   43.4222   28.4817   44.1919 H   0  0  0  0  0  0  0  0  0  0  0  0
   41.7476   30.2753   45.6476 H   0  0  0  0  0  0  0  0  0  0  0  0
   43.3425   29.6697   46.1141 H   0  0  0  0  0  0  0  0  0  0  0  0
   42.8551   32.3390   45.5845 H   0  0  0  0  0  0  0  0  0  0  0  0
   44.4415   31.6284   45.2923 H   0  0  0  0  0  0  0  0  0  0  0  0
   42.1316   32.0610   43.3024 H   0  0  0  0  0  0  0  0  0  0  0  0
   43.7962   32.5468   43.0859 H   0  0  0  0  0  0  0  0  0  0  0  0
   44.5426   30.2801   42.7760 H   0  0  0  0  0  0  0  0  0  0  0  0
  1  2  1  0
  2  3  1  0
  3  4  1  0
  4  5  1  0
  5  6  1  0
  6  7  1  0
  7  8  2  0
  8  9  1  0
  9 10  2  0
 10 11  1  0
 11 12  2  0
  4 13  1  0
 13 14  2  0
 13 15  1  0
  2 16  1  0
 16 17  2  0
 16 18  1  0
 18 19  1  0
 19 20  1  0
 20 21  2  0
 20 22  1  0
 19 23  1  0
 23 24  1  0
 24 25  1  0
 25 26  1  0
 26 27  1  0
 27 28  1  0
 12  7  1  0
 28 18  1  0
 28 24  1  0
  1 29  1  0
  1 30  1  0
  1 31  1  0
  2 32  1  1
  3 33  1  0
  3 34  1  0
  4 35  1  6
  5 36  1  0
  5 37  1  0
  6 38  1  0
  6 39  1  0
  8 40  1  0
  9 41  1  0
 10 42  1  0
 11 43  1  0
 12 44  1  0
 19 45  1  6
 23 46  1  0
 23 47  1  0
 24 48  1  1
 25 49  1  0
 25 50  1  0
 26 51  1  0
 26 52  1  0
 27 53  1  0
 27 54  1  0
 28 55  1  6
M  CHG  3   3   1  15  -1  22  -1
M  END
>  <meeko>  (1) 
{"is_sidechain": false}

>  <vina_kcal_mol>  (1) 
-8.771

$$$$
