pose 1
     RDKit          3D

 45 47  0  0  0  0  0  0  0  0999 V2000
  -34.1720    5.0690    7.8110 C   0  0  0  0  0  0  0  0  0  0  0  0
  -34.6180    6.2150    6.9120 C   0  0  0  0  0  0  0  0  0  0  0  0
  -34.0860    6.0410    5.4920 C   0  0  0  0  0  0  0  0  0  0  0  0
  -34.0940    7.5260    7.4410 N   0  0  0  0  0  0  0  0  0  0  0  0
  -32.6710    7.8560    7.0690 C   0  0  0  0  0  0  0  0  0  0  0  0
  -32.2230    9.1800    7.7050 C   0  0  2  0  0  0  0  0  0  0  0  0
  -33.3760    9.9990    7.9110 O   0  0  0  0  0  0  0  0  0  0  0  0
  -31.2190    9.9230    6.8130 C   0  0  0  0  0  0  0  0  0  0  0  0
  -29.9500    9.9580    7.4830 O   0  0  0  0  0  0  0  0  0  0  0  0
  -29.0220   10.6560    6.7310 C   0  0  0  0  0  0  0  0  0  0  0  0
  -29.4370   11.8710    6.1760 C   0  0  0  0  0  0  0  0  0  0  0  0
  -28.5530   12.6400    5.4250 C   0  0  0  0  0  0  0  0  0  0  0  0
  -27.2420   12.2120    5.1990 C   0  0  0  0  0  0  0  0  0  0  0  0
  -26.8590   10.9710    5.7270 C   0  0  0  0  0  0  0  0  0  0  0  0
  -25.6610   10.3020    5.6220 N   0  0  0  0  0  0  0  0  0  0  0  0
  -25.7210    9.0840    6.2580 C   0  0  0  0  0  0  0  0  0  0  0  0
  -24.7460    8.0860    6.3800 C   0  0  0  0  0  0  0  0  0  0  0  0
  -25.1000    6.9110    7.0480 C   0  0  0  0  0  0  0  0  0  0  0  0
  -26.3800    6.7410    7.5690 C   0  0  0  0  0  0  0  0  0  0  0  0
  -27.3410    7.7510    7.4400 C   0  0  0  0  0  0  0  0  0  0  0  0
  -27.0090    8.9550    6.7810 C   0  0  0  0  0  0  0  0  0  0  0  0
  -27.7220   10.1630    6.4720 C   0  0  0  0  0  0  0  0  0  0  0  0
  -34.2866    5.3635    8.8646 H   0  0  0  0  0  0  0  0  0  0  0  0
  -34.7906    4.1822    7.6088 H   0  0  0  0  0  0  0  0  0  0  0  0
  -33.1167    4.8337    7.6088 H   0  0  0  0  0  0  0  0  0  0  0  0
  -35.7179    6.2114    6.9001 H   0  0  0  0  0  0  0  0  0  0  0  0
  -33.0412    5.6993    5.5312 H   0  0  0  0  0  0  0  0  0  0  0  0
  -34.6959    5.2955    4.9607 H   0  0  0  0  0  0  0  0  0  0  0  0
  -34.1375    7.0028    4.9607 H   0  0  0  0  0  0  0  0  0  0  0  0
  -34.7060    8.2890    7.1150 H   0  0  0  0  0  0  0  0  0  0  0  0
  -34.1920    7.5140    8.4670 H   0  0  0  0  0  0  0  0  0  0  0  0
  -32.0119    7.0483    7.4201 H   0  0  0  0  0  0  0  0  0  0  0  0
  -32.6117    7.9576    5.9753 H   0  0  0  0  0  0  0  0  0  0  0  0
  -31.7241    8.9611    8.6606 H   0  0  0  0  0  0  0  0  0  0  0  0
  -33.0870   10.9330    7.8370 H   0  0  0  0  0  0  0  0  0  0  0  0
  -31.1166    9.3970    5.8524 H   0  0  0  0  0  0  0  0  0  0  0  0
  -31.5718   10.9473    6.6223 H   0  0  0  0  0  0  0  0  0  0  0  0
  -30.4679   12.2207    6.3340 H   0  0  0  0  0  0  0  0  0  0  0  0
  -28.8909   13.5981    5.0034 H   0  0  0  0  0  0  0  0  0  0  0  0
  -26.5339   12.8285    4.6257 H   0  0  0  0  0  0  0  0  0  0  0  0
  -24.8580   10.6390    5.1100 H   0  0  0  0  0  0  0  0  0  0  0  0
  -23.7367    8.2225    5.9644 H   0  0  0  0  0  0  0  0  0  0  0  0
  -24.3566    6.1085    7.1640 H   0  0  0  0  0  0  0  0  0  0  0  0
  -26.6384    5.8053    8.0863 H   0  0  0  0  0  0  0  0  0  0  0  0
  -28.3513    7.6071    7.8506 H   0  0  0  0  0  0  0  0  0  0  0  0
  1  2  1  0
  2  3  1  0
  2  4  1  0
  4  5  1  0
  5  6  1  0
  6  7  1  0
  6  8  1  0
  8  9  1  0
  9 10  1  0
 10 11  1  0
 11 12  2  0
 12 13  1  0
 13 14  2  0
 14 15  1  0
 15 16  1  0
 16 17  2  0
 17 18  1  0
 18 19  2  0
 19 20  1  0
 20 21  2  0
 21 22  1  0
 22 10  2  0
 22 14  1  0
 21 16  1  0
  1 23  1  0
  1 24  1  0
  1 25  1  0
  2 26  1  0
  3 27  1  0
  3 28  1  0
  3 29  1  0
  4 30  1  0
  4 31  1  0
  5 32  1  0
  5 33  1  0
  6 34  1  1
  7 35  1  0
  8 36  1  0
  8 37  1  0
 11 38  1  0
 12 39  1  0
 13 40  1  0
 15 41  1  0
 17 42  1  0
 18 43  1  0
 19 44  1  0
 20 45  1  0
M  CHG  1   4   1
M  END
>  <meeko>  (1) 
{"is_sidechain": false}

>  <vina_kcal_mol>  (1) 
-10.047

>  <rmsd_cristal>  (1) 
0.98

$$$$
pose 2
     RDKit          3D

 45 47  0  0  0  0  0  0  0  0999 V2000
  -36.1590    5.8500    9.1390 C   0  0  0  0  0  0  0  0  0  0  0  0
  -35.1860    5.7250    7.9740 C   0  0  0  0  0  0  0  0  0  0  0  0
  -33.9830    4.8630    8.3510 C   0  0  0  0  0  0  0  0  0  0  0  0
  -34.6700    7.0850    7.5780 N   0  0  0  0  0  0  0  0  0  0  0  0
  -33.2650    7.1150    7.0330 C   0  0  0  0  0  0  0  0  0  0  0  0
  -32.4680    8.2920    7.6140 C   0  0  2  0  0  0  0  0  0  0  0  0
  -33.3570    9.3940    7.8020 O   0  0  0  0  0  0  0  0  0  0  0  0
  -31.3220    8.7110    6.6840 C   0  0  0  0  0  0  0  0  0  0  0  0
  -30.1840    9.0570    7.4870 O   0  0  0  0  0  0  0  0  0  0  0  0
  -29.4060   10.0050    6.8460 C   0  0  0  0  0  0  0  0  0  0  0  0
  -30.0540   11.1600    6.3930 C   0  0  0  0  0  0  0  0  0  0  0  0
  -29.3340   12.1670    5.7580 C   0  0  0  0  0  0  0  0  0  0  0  0
  -27.9580   12.0440    5.5500 C   0  0  0  0  0  0  0  0  0  0  0  0
  -27.3350   10.8610    5.9720 C   0  0  0  0  0  0  0  0  0  0  0  0
  -26.0220   10.4670    5.8550 N   0  0  0  0  0  0  0  0  0  0  0  0
  -25.8390    9.2050    6.3680 C   0  0  0  0  0  0  0  0  0  0  0  0
  -24.6800    8.4220    6.4360 C   0  0  0  0  0  0  0  0  0  0  0  0
  -24.7960    7.1360    6.9720 C   0  0  0  0  0  0  0  0  0  0  0  0
  -26.0230    6.6540    7.4190 C   0  0  0  0  0  0  0  0  0  0  0  0
  -27.1710    7.4520    7.3460 C   0  0  0  0  0  0  0  0  0  0  0  0
  -27.0840    8.7600    6.8200 C   0  0  0  0  0  0  0  0  0  0  0  0
  -28.0260    9.8200    6.5980 C   0  0  0  0  0  0  0  0  0  0  0  0
  -35.6064    5.7790   10.0875 H   0  0  0  0  0  0  0  0  0  0  0  0
  -36.6722    6.8215    9.0855 H   0  0  0  0  0  0  0  0  0  0  0  0
  -36.9011    5.0398    9.0855 H   0  0  0  0  0  0  0  0  0  0  0  0
  -35.7321    5.2582    7.1410 H   0  0  0  0  0  0  0  0  0  0  0  0
  -33.9023    4.8052    9.4465 H   0  0  0  0  0  0  0  0  0  0  0  0
  -34.1132    3.8514    7.9390 H   0  0  0  0  0  0  0  0  0  0  0  0
  -33.0670    5.3116    7.9390 H   0  0  0  0  0  0  0  0  0  0  0  0
  -35.3050    7.4940    6.8770 H   0  0  0  0  0  0  0  0  0  0  0  0
  -34.7370    7.6990    8.4030 H   0  0  0  0  0  0  0  0  0  0  0  0
  -32.7584    6.1745    7.2954 H   0  0  0  0  0  0  0  0  0  0  0  0
  -33.3179    7.2360    5.9410 H   0  0  0  0  0  0  0  0  0  0  0  0
  -32.0252    7.9798    8.5713 H   0  0  0  0  0  0  0  0  0  0  0  0
  -33.9290    9.4470    7.0080 H   0  0  0  0  0  0  0  0  0  0  0  0
  -31.0637    7.8768    6.0151 H   0  0  0  0  0  0  0  0  0  0  0  0
  -31.6287    9.5742    6.0750 H   0  0  0  0  0  0  0  0  0  0  0  0
  -31.1384   11.2721    6.5398 H   0  0  0  0  0  0  0  0  0  0  0  0
  -29.8555   13.0727    5.4149 H   0  0  0  0  0  0  0  0  0  0  0  0
  -27.3820   12.8493    5.0706 H   0  0  0  0  0  0  0  0  0  0  0  0
  -25.2960   11.0130    5.4120 H   0  0  0  0  0  0  0  0  0  0  0  0
  -23.7123    8.8053    6.0802 H   0  0  0  0  0  0  0  0  0  0  0  0
  -23.9044    6.4955    7.0415 H   0  0  0  0  0  0  0  0  0  0  0  0
  -26.0912    5.6372    7.8332 H   0  0  0  0  0  0  0  0  0  0  0  0
  -28.1376    7.0616    7.6971 H   0  0  0  0  0  0  0  0  0  0  0  0
  1  2  1  0
  2  3  1  0
  2  4  1  0
  4  5  1  0
  5  6  1  0
  6  7  1  0
  6  8  1  0
  8  9  1  0
  9 10  1  0
 10 11  1  0
 11 12  2  0
 12 13  1  0
 13 14  2  0
 14 15  1  0
 15 16  1  0
 16 17  2  0
 17 18  1  0
 18 19  2  0
 19 20  1  0
 20 21  2  0
 21 22  1  0
 22 10  2  0
 22 14  1  0
 21 16  1  0
  1 23  1  0
  1 24  1  0
  1 25  1  0
  2 26  1  0
  3 27  1  0
  3 28  1  0
  3 29  1  0
  4 30  1  0
  4 31  1  0
  5 32  1  0
  5 33  1  0
  6 34  1  1
  7 35  1  0
  8 36  1  0
  8 37  1  0
 11 38  1  0
 12 39  1  0
 13 40  1  0
 15 41  1  0
 17 42  1  0
 18 43  1  0
 19 44  1  0
 20 45  1  0
M  CHG  1   4   1
M  END
>  <meeko>  (2) 
{"is_sidechain": false}

>  <vina_kcal_mol>  (2) 
-9.408

>  <rmsd_cristal>  (2) 
1.59

$$$$
pose 3
     RDKit          3D

 45 47  0  0  0  0  0  0  0  0999 V2000
  -35.9210    5.8420    8.7590 C   0  0  0  0  0  0  0  0  0  0  0  0
  -34.8620    5.6150    7.6880 C   0  0  0  0  0  0  0  0  0  0  0  0
  -34.4750    4.1410    7.5980 C   0  0  0  0  0  0  0  0  0  0  0  0
  -33.6150    6.3980    8.0130 N   0  0  0  0  0  0  0  0  0  0  0  0
  -32.9830    7.1270    6.8550 C   0  0  0  0  0  0  0  0  0  0  0  0
  -31.9750    8.1780    7.3430 C   0  0  2  0  0  0  0  0  0  0  0  0
  -32.3420    9.4480    6.7990 O   0  0  0  0  0  0  0  0  0  0  0  0
  -30.5440    7.8300    6.9110 C   0  0  0  0  0  0  0  0  0  0  0  0
  -29.6340    8.3190    7.9080 O   0  0  0  0  0  0  0  0  0  0  0  0
  -28.3250    8.1370    7.5020 C   0  0  0  0  0  0  0  0  0  0  0  0
  -27.6890    6.9590    7.9100 C   0  0  0  0  0  0  0  0  0  0  0  0
  -26.3790    6.6960    7.5220 C   0  0  0  0  0  0  0  0  0  0  0  0
  -25.6680    7.6020    6.7310 C   0  0  0  0  0  0  0  0  0  0  0  0
  -26.3080    8.7960    6.3680 C   0  0  0  0  0  0  0  0  0  0  0  0
  -25.8330    9.8630    5.6410 N   0  0  0  0  0  0  0  0  0  0  0  0
  -26.7790   10.8570    5.5520 C   0  0  0  0  0  0  0  0  0  0  0  0
  -26.7110   12.1080    4.9260 C   0  0  0  0  0  0  0  0  0  0  0  0
  -27.8200   12.9510    5.0370 C   0  0  0  0  0  0  0  0  0  0  0  0
  -28.9510   12.5570    5.7480 C   0  0  0  0  0  0  0  0  0  0  0  0
  -29.0030   11.3000    6.3630 C   0  0  0  0  0  0  0  0  0  0  0  0
  -27.9020   10.4220    6.2590 C   0  0  0  0  0  0  0  0  0  0  0  0
  -27.6160    9.1040    6.7510 C   0  0  0  0  0  0  0  0  0  0  0  0
  -35.4629    5.7438    9.7542 H   0  0  0  0  0  0  0  0  0  0  0  0
  -36.3442    6.8513    8.6481 H   0  0  0  0  0  0  0  0  0  0  0  0
  -36.7207    5.0949    8.6481 H   0  0  0  0  0  0  0  0  0  0  0  0
  -35.2910    5.9460    6.7307 H   0  0  0  0  0  0  0  0  0  0  0  0
  -34.3665    3.7278    8.6117 H   0  0  0  0  0  0  0  0  0  0  0  0
  -35.2585    3.5885    7.0587 H   0  0  0  0  0  0  0  0  0  0  0  0
  -33.5211    4.0446    7.0587 H   0  0  0  0  0  0  0  0  0  0  0  0
  -33.8300    7.0800    8.7550 H   0  0  0  0  0  0  0  0  0  0  0  0
  -32.9330    5.7460    8.4280 H   0  0  0  0  0  0  0  0  0  0  0  0
  -32.4616    6.4000    6.2150 H   0  0  0  0  0  0  0  0  0  0  0  0
  -33.7764    7.6407    6.2923 H   0  0  0  0  0  0  0  0  0  0  0  0
  -31.9967    8.2034    8.4425 H   0  0  0  0  0  0  0  0  0  0  0  0
  -32.5920    9.3020    5.8630 H   0  0  0  0  0  0  0  0  0  0  0  0
  -30.4400    6.7390    6.8172 H   0  0  0  0  0  0  0  0  0  0  0  0
  -30.3213    8.2935    5.9386 H   0  0  0  0  0  0  0  0  0  0  0  0
  -28.2279    6.2369    8.5410 H   0  0  0  0  0  0  0  0  0  0  0  0
  -25.8961    5.7612    7.8427 H   0  0  0  0  0  0  0  0  0  0  0  0
  -24.6403    7.3860    6.4038 H   0  0  0  0  0  0  0  0  0  0  0  0
  -24.9000    9.9290    5.2600 H   0  0  0  0  0  0  0  0  0  0  0  0
  -25.8156   12.4163    4.3663 H   0  0  0  0  0  0  0  0  0  0  0  0
  -27.7994   13.9400    4.5559 H   0  0  0  0  0  0  0  0  0  0  0  0
  -29.8105   13.2389    5.8271 H   0  0  0  0  0  0  0  0  0  0  0  0
  -29.8987   10.9975    6.9253 H   0  0  0  0  0  0  0  0  0  0  0  0
  1  2  1  0
  2  3  1  0
  2  4  1  0
  4  5  1  0
  5  6  1  0
  6  7  1  0
  6  8  1  0
  8  9  1  0
  9 10  1  0
 10 11  1  0
 11 12  2  0
 12 13  1  0
 13 14  2  0
 14 15  1  0
 15 16  1  0
 16 17  2  0
 17 18  1  0
 18 19  2  0
 19 20  1  0
 20 21  2  0
 21 22  1  0
 22 10  2  0
 22 14  1  0
 21 16  1  0
  1 23  1  0
  1 24  1  0
  1 25  1  0
  2 26  1  0
  3 27  1  0
  3 28  1  0
  3 29  1  0
  4 30  1  0
  4 31  1  0
  5 32  1  0
  5 33  1  0
  6 34  1  1
  7 35  1  0
  8 36  1  0
  8 37  1  0
 11 38  1  0
 12 39  1  0
 13 40  1  0
 15 41  1  0
 17 42  1  0
 18 43  1  0
 19 44  1  0
 20 45  1  0
M  CHG  1   4   1
M  END
>  <meeko>  (3) 
{"is_sidechain": false}

>  <vina_kcal_mol>  (3) 
-8.699

>  <rmsd_cristal>  (3) 
3.68

$$$$
pose 4
     RDKit          3D

 45 47  0  0  0  0  0  0  0  0999 V2000
  -29.8020    9.2360    7.0650 C   0  0  0  0  0  0  0  0  0  0  0  0
  -30.9970   10.1480    6.8220 C   0  0  0  0  0  0  0  0  0  0  0  0
  -30.9400   11.3830    7.7180 C   0  0  0  0  0  0  0  0  0  0  0  0
  -32.2810    9.4180    7.1290 N   0  0  0  0  0  0  0  0  0  0  0  0
  -32.1310    7.9600    7.4810 C   0  0  0  0  0  0  0  0  0  0  0  0
  -33.3990    7.1690    7.1230 C   0  0  2  0  0  0  0  0  0  0  0  0
  -34.5190    7.8000    7.7470 O   0  0  0  0  0  0  0  0  0  0  0  0
  -33.3050    5.7110    7.5910 C   0  0  0  0  0  0  0  0  0  0  0  0
  -33.4520    5.6780    9.0180 O   0  0  0  0  0  0  0  0  0  0  0  0
  -33.7340    4.3940    9.4490 C   0  0  0  0  0  0  0  0  0  0  0  0
  -32.6720    3.4830    9.4720 C   0  0  0  0  0  0  0  0  0  0  0  0
  -32.8740    2.1790    9.9130 C   0  0  0  0  0  0  0  0  0  0  0  0
  -34.1370    1.7490   10.3290 C   0  0  0  0  0  0  0  0  0  0  0  0
  -35.1970    2.6640   10.2570 C   0  0  0  0  0  0  0  0  0  0  0  0
  -36.5280    2.4940   10.5590 N   0  0  0  0  0  0  0  0  0  0  0  0
  -37.2400    3.6430   10.3050 C   0  0  0  0  0  0  0  0  0  0  0  0
  -38.6090    3.9020   10.4510 C   0  0  0  0  0  0  0  0  0  0  0  0
  -39.0760    5.1610   10.0640 C   0  0  0  0  0  0  0  0  0  0  0  0
  -38.2080    6.1200    9.5490 C   0  0  0  0  0  0  0  0  0  0  0  0
  -36.8420    5.8450    9.4130 C   0  0  0  0  0  0  0  0  0  0  0  0
  -36.3380    4.5850    9.8070 C   0  0  0  0  0  0  0  0  0  0  0  0
  -35.0370    3.9760    9.8050 C   0  0  0  0  0  0  0  0  0  0  0  0
  -29.6458    9.1168    8.1473 H   0  0  0  0  0  0  0  0  0  0  0  0
  -29.9934    8.2522    6.6116 H   0  0  0  0  0  0  0  0  0  0  0  0
  -28.9036    9.6802    6.6116 H   0  0  0  0  0  0  0  0  0  0  0  0
  -30.9647   10.4527    5.7655 H   0  0  0  0  0  0  0  0  0  0  0  0
  -30.9544   11.0716    8.7729 H   0  0  0  0  0  0  0  0  0  0  0  0
  -30.0151   11.9421    7.5133 H   0  0  0  0  0  0  0  0  0  0  0  0
  -31.8095   12.0250    7.5133 H   0  0  0  0  0  0  0  0  0  0  0  0
  -32.7630    9.8970    7.9040 H   0  0  0  0  0  0  0  0  0  0  0  0
  -32.9020    9.5180    6.3140 H   0  0  0  0  0  0  0  0  0  0  0  0
  -31.2786    7.5424    6.9251 H   0  0  0  0  0  0  0  0  0  0  0  0
  -31.9640    7.8786    8.5652 H   0  0  0  0  0  0  0  0  0  0  0  0
  -33.5141    7.1623    6.0291 H   0  0  0  0  0  0  0  0  0  0  0  0
  -35.0620    8.2000    7.0350 H   0  0  0  0  0  0  0  0  0  0  0  0
  -34.1049    5.1190    7.1222 H   0  0  0  0  0  0  0  0  0  0  0  0
  -32.3320    5.2860    7.3035 H   0  0  0  0  0  0  0  0  0  0  0  0
  -31.6723    3.7995    9.1397 H   0  0  0  0  0  0  0  0  0  0  0  0
  -32.0277    1.4766    9.9345 H   0  0  0  0  0  0  0  0  0  0  0  0
  -34.2944    0.7258   10.7009 H   0  0  0  0  0  0  0  0  0  0  0  0
  -36.9380    1.6300   10.8830 H   0  0  0  0  0  0  0  0  0  0  0  0
  -39.2924    3.1411   10.8560 H   0  0  0  0  0  0  0  0  0  0  0  0
  -40.1452    5.3978   10.1678 H   0  0  0  0  0  0  0  0  0  0  0  0
  -38.5990    7.1026    9.2462 H   0  0  0  0  0  0  0  0  0  0  0  0
  -36.1637    6.6068    9.0011 H   0  0  0  0  0  0  0  0  0  0  0  0
  1  2  1  0
  2  3  1  0
  2  4  1  0
  4  5  1  0
  5  6  1  0
  6  7  1  0
  6  8  1  0
  8  9  1  0
  9 10  1  0
 10 11  1  0
 11 12  2  0
 12 13  1  0
 13 14  2  0
 14 15  1  0
 15 16  1  0
 16 17  2  0
 17 18  1  0
 18 19  2  0
 19 20  1  0
 20 21  2  0
 21 22  1  0
 22 10  2  0
 22 14  1  0
 21 16  1  0
  1 23  1  0
  1 24  1  0
  1 25  1  0
  2 26  1  0
  3 27  1  0
  3 28  1  0
  3 29  1  0
  4 30  1  0
  4 31  1  0
  5 32  1  0
  5 33  1  0
  6 34  1  6
  7 35  1  0
  8 36  1  0
  8 37  1  0
 11 38  1  0
 12 39  1  0
 13 40  1  0
 15 41  1  0
 17 42  1  0
 18 43  1  0
 19 44  1  0
 20 45  1  0
M  CHG  1   4   1
M  END
>  <meeko>  (4) 
{"is_sidechain": false}

>  <vina_kcal_mol>  (4) 
-8.091

>  <rmsd_cristal>  (4) 
9.46

$$$$
pose 5
     RDKit          3D

 45 47  0  0  0  0  0  0  0  0999 V2000
  -31.8450    7.6020    5.3350 C   0  0  0  0  0  0  0  0  0  0  0  0
  -31.5620    8.2880    6.6660 C   0  0  0  0  0  0  0  0  0  0  0  0
  -30.0620    8.3640    6.9390 C   0  0  0  0  0  0  0  0  0  0  0  0
  -32.1960    7.5160    7.7950 N   0  0  0  0  0  0  0  0  0  0  0  0
  -32.8710    6.2260    7.4040 C   0  0  0  0  0  0  0  0  0  0  0  0
  -34.3860    6.4170    7.2440 C   0  0  2  0  0  0  0  0  0  0  0  0
  -34.7700    7.6070    7.9370 O   0  0  0  0  0  0  0  0  0  0  0  0
  -35.1680    5.2230    7.8070 C   0  0  0  0  0  0  0  0  0  0  0  0
  -35.2790    5.3780    9.2300 O   0  0  0  0  0  0  0  0  0  0  0  0
  -35.9850    4.3240    9.7810 C   0  0  0  0  0  0  0  0  0  0  0  0
  -37.3340    4.5480   10.0770 C   0  0  0  0  0  0  0  0  0  0  0  0
  -38.1150    3.5280   10.6130 C   0  0  0  0  0  0  0  0  0  0  0  0
  -37.5700    2.2680   10.8760 C   0  0  0  0  0  0  0  0  0  0  0  0
  -36.2060    2.0780   10.6120 C   0  0  0  0  0  0  0  0  0  0  0  0
  -35.4180    0.9690   10.8130 N   0  0  0  0  0  0  0  0  0  0  0  0
  -34.1140    1.2200   10.4560 C   0  0  0  0  0  0  0  0  0  0  0  0
  -32.9900    0.3870   10.5130 C   0  0  0  0  0  0  0  0  0  0  0  0
  -31.7600    0.9280   10.1260 C   0  0  0  0  0  0  0  0  0  0  0  0
  -31.6610    2.2500    9.7010 C   0  0  0  0  0  0  0  0  0  0  0  0
  -32.7970    3.0670    9.6460 C   0  0  0  0  0  0  0  0  0  0  0  0
  -34.0550    2.5460   10.0200 C   0  0  0  0  0  0  0  0  0  0  0  0
  -35.3860    3.0810   10.0900 C   0  0  0  0  0  0  0  0  0  0  0  0
  -32.2585    6.5996    5.5198 H   0  0  0  0  0  0  0  0  0  0  0  0
  -32.5706    8.1981    4.7622 H   0  0  0  0  0  0  0  0  0  0  0  0
  -30.9101    7.5131    4.7622 H   0  0  0  0  0  0  0  0  0  0  0  0
  -31.9808    9.3034    6.6055 H   0  0  0  0  0  0  0  0  0  0  0  0
  -29.8869    8.3729    8.0249 H   0  0  0  0  0  0  0  0  0  0  0  0
  -29.5636    7.4900    6.4944 H   0  0  0  0  0  0  0  0  0  0  0  0
  -29.6545    9.2839    6.4944 H   0  0  0  0  0  0  0  0  0  0  0  0
  -31.4790    7.3110    8.5070 H   0  0  0  0  0  0  0  0  0  0  0  0
  -32.8740    8.1370    8.2590 H   0  0  0  0  0  0  0  0  0  0  0  0
  -32.4508    5.8764    6.4494 H   0  0  0  0  0  0  0  0  0  0  0  0
  -32.6957    5.4867    8.1995 H   0  0  0  0  0  0  0  0  0  0  0  0
  -34.6198    6.4957    6.1720 H   0  0  0  0  0  0  0  0  0  0  0  0
  -35.0140    8.2720    7.2590 H   0  0  0  0  0  0  0  0  0  0  0  0
  -36.1718    5.1926    7.3581 H   0  0  0  0  0  0  0  0  0  0  0  0
  -34.6435    4.2853    7.5709 H   0  0  0  0  0  0  0  0  0  0  0  0
  -37.7797    5.5352    9.8852 H   0  0  0  0  0  0  0  0  0  0  0  0
  -39.1763    3.7162   10.8327 H   0  0  0  0  0  0  0  0  0  0  0  0
  -38.1903    1.4527   11.2767 H   0  0  0  0  0  0  0  0  0  0  0  0
  -35.7410    0.0980   11.2120 H   0  0  0  0  0  0  0  0  0  0  0  0
  -33.0717   -0.6568   10.8505 H   0  0  0  0  0  0  0  0  0  0  0  0
  -30.8575    0.2999   10.1578 H   0  0  0  0  0  0  0  0  0  0  0  0
  -30.6823    2.6562    9.4059 H   0  0  0  0  0  0  0  0  0  0  0  0
  -32.7096    4.1116    9.3124 H   0  0  0  0  0  0  0  0  0  0  0  0
  1  2  1  0
  2  3  1  0
  2  4  1  0
  4  5  1  0
  5  6  1  0
  6  7  1  0
  6  8  1  0
  8  9  1  0
  9 10  1  0
 10 11  1  0
 11 12  2  0
 12 13  1  0
 13 14  2  0
 14 15  1  0
 15 16  1  0
 16 17  2  0
 17 18  1  0
 18 19  2  0
 19 20  1  0
 20 21  2  0
 21 22  1  0
 22 10  2  0
 22 14  1  0
 21 16  1  0
  1 23  1  0
  1 24  1  0
  1 25  1  0
  2 26  1  0
  3 27  1  0
  3 28  1  0
  3 29  1  0
  4 30  1  0
  4 31  1  0
  5 32  1  0
  5 33  1  0
  6 34  1  6
  7 35  1  0
  8 36  1  0
  8 37  1  0
 11 38  1  0
 12 39  1  0
 13 40  1  0
 15 41  1  0
 17 42  1  0
 18 43  1  0
 19 44  1  0
 20 45  1  0
M  CHG  1   4   1
M  END
>  <meeko>  (5) 
{"is_sidechain": false}

>  <vina_kcal_mol>  (5) 
-7.76

>  <rmsd_cristal>  (5) 
9.29

$$$$
pose 6
     RDKit          3D

 45 47  0  0  0  0  0  0  0  0999 V2000
  -28.7000   10.0640    7.1570 C   0  0  0  0  0  0  0  0  0  0  0  0
  -30.1480   10.4870    6.9450 C   0  0  0  0  0  0  0  0  0  0  0  0
  -30.4510   11.8000    7.6640 C   0  0  0  0  0  0  0  0  0  0  0  0
  -31.0830    9.4380    7.4930 N   0  0  0  0  0  0  0  0  0  0  0  0
  -31.4300    8.3170    6.5460 C   0  0  0  0  0  0  0  0  0  0  0  0
  -32.7580    7.6520    6.9350 C   0  0  2  0  0  0  0  0  0  0  0  0
  -33.5780    8.6220    7.5880 O   0  0  0  0  0  0  0  0  0  0  0  0
  -32.5370    6.4550    7.8690 C   0  0  0  0  0  0  0  0  0  0  0  0
  -33.3980    5.3840    7.4520 O   0  0  0  0  0  0  0  0  0  0  0  0
  -34.3450    5.1150    8.4230 C   0  0  0  0  0  0  0  0  0  0  0  0
  -35.5190    5.8760    8.3960 C   0  0  0  0  0  0  0  0  0  0  0  0
  -36.5260    5.6490    9.3290 C   0  0  0  0  0  0  0  0  0  0  0  0
  -36.3840    4.6680   10.3150 C   0  0  0  0  0  0  0  0  0  0  0  0
  -35.1830    3.9460   10.3510 C   0  0  0  0  0  0  0  0  0  0  0  0
  -34.7700    2.9690   11.2270 N   0  0  0  0  0  0  0  0  0  0  0  0
  -33.4950    2.5500   10.9310 C   0  0  0  0  0  0  0  0  0  0  0  0
  -32.6910    1.5960   11.5680 C   0  0  0  0  0  0  0  0  0  0  0  0
  -31.3980    1.4030   11.0760 C   0  0  0  0  0  0  0  0  0  0  0  0
  -30.9270    2.1380    9.9910 C   0  0  0  0  0  0  0  0  0  0  0  0
  -31.7460    3.0840    9.3630 C   0  0  0  0  0  0  0  0  0  0  0  0
  -33.0620    3.2930    9.8310 C   0  0  0  0  0  0  0  0  0  0  0  0
  -34.1420    4.1570    9.4430 C   0  0  0  0  0  0  0  0  0  0  0  0
  -28.4900   10.0027    8.2350 H   0  0  0  0  0  0  0  0  0  0  0  0
  -28.5340    9.0798    6.6945 H   0  0  0  0  0  0  0  0  0  0  0  0
  -28.0304   10.8041    6.6945 H   0  0  0  0  0  0  0  0  0  0  0  0
  -30.2951   10.6133    5.8622 H   0  0  0  0  0  0  0  0  0  0  0  0
  -30.4140   11.6395    8.7516 H   0  0  0  0  0  0  0  0  0  0  0  0
  -29.7035   12.5550    7.3791 H   0  0  0  0  0  0  0  0  0  0  0  0
  -31.4538   12.1511    7.3791 H   0  0  0  0  0  0  0  0  0  0  0  0
  -30.6710    9.0330    8.3470 H   0  0  0  0  0  0  0  0  0  0  0  0
  -31.9440    9.9130    7.8000 H   0  0  0  0  0  0  0  0  0  0  0  0
  -31.5166    8.7221    5.5270 H   0  0  0  0  0  0  0  0  0  0  0  0
  -30.6337    7.5598    6.5962 H   0  0  0  0  0  0  0  0  0  0  0  0
  -33.2463    7.2791    6.0226 H   0  0  0  0  0  0  0  0  0  0  0  0
  -34.3310    8.1420    7.9940 H   0  0  0  0  0  0  0  0  0  0  0  0
  -31.4876    6.1301    7.8132 H   0  0  0  0  0  0  0  0  0  0  0  0
  -32.7668    6.7400    8.9063 H   0  0  0  0  0  0  0  0  0  0  0  0
  -35.6465    6.6580    7.6330 H   0  0  0  0  0  0  0  0  0  0  0  0
  -37.4467    6.2497    9.2903 H   0  0  0  0  0  0  0  0  0  0  0  0
  -37.1882    4.4693   11.0387 H   0  0  0  0  0  0  0  0  0  0  0  0
  -35.3120    2.6340   12.0110 H   0  0  0  0  0  0  0  0  0  0  0  0
  -33.0651    1.0186   12.4263 H   0  0  0  0  0  0  0  0  0  0  0  0
  -30.7422    0.6595   11.5526 H   0  0  0  0  0  0  0  0  0  0  0  0
  -29.9030    1.9739    9.6243 H   0  0  0  0  0  0  0  0  0  0  0  0
  -31.3658    3.6624    8.5081 H   0  0  0  0  0  0  0  0  0  0  0  0
  1  2  1  0
  2  3  1  0
  2  4  1  0
  4  5  1  0
  5  6  1  0
  6  7  1  0
  6  8  1  0
  8  9  1  0
  9 10  1  0
 10 11  1  0
 11 12  2  0
 12 13  1  0
 13 14  2  0
 14 15  1  0
 15 16  1  0
 16 17  2  0
 17 18  1  0
 18 19  2  0
 19 20  1  0
 20 21  2  0
 21 22  1  0
 22 10  2  0
 22 14  1  0
 21 16  1  0
  1 23  1  0
  1 24  1  0
  1 25  1  0
  2 26  1  0
  3 27  1  0
  3 28  1  0
  3 29  1  0
  4 30  1  0
  4 31  1  0
  5 32  1  0
  5 33  1  0
  6 34  1  6
  7 35  1  0
  8 36  1  0
  8 37  1  0
 11 38  1  0
 12 39  1  0
 13 40  1  0
 15 41  1  0
 17 42  1  0
 18 43  1  0
 19 44  1  0
 20 45  1  0
M  CHG  1   4   1
M  END
>  <meeko>  (6) 
{"is_sidechain": false}

>  <vina_kcal_mol>  (6) 
-7.676

>  <rmsd_cristal>  (6) 
8.17

$$$$
pose 7
     RDKit          3D

 45 47  0  0  0  0  0  0  0  0999 V2000
  -29.2980   -0.5180   11.4800 C   0  0  0  0  0  0  0  0  0  0  0  0
  -29.6600    0.8140   12.1240 C   0  0  0  0  0  0  0  0  0  0  0  0
  -30.1620    0.6180   13.5520 C   0  0  0  0  0  0  0  0  0  0  0  0
  -30.7570    1.4900   11.3400 N   0  0  0  0  0  0  0  0  0  0  0  0
  -32.1630    1.0880   11.7090 C   0  0  0  0  0  0  0  0  0  0  0  0
  -32.9610    0.6590   10.4690 C   0  0  2  0  0  0  0  0  0  0  0  0
  -32.0510    0.4750    9.3830 O   0  0  0  0  0  0  0  0  0  0  0  0
  -34.0120    1.7090   10.0840 C   0  0  0  0  0  0  0  0  0  0  0  0
  -33.7240    2.9250   10.7900 O   0  0  0  0  0  0  0  0  0  0  0  0
  -33.6520    3.9910    9.9110 C   0  0  0  0  0  0  0  0  0  0  0  0
  -32.3880    4.3220    9.4120 C   0  0  0  0  0  0  0  0  0  0  0  0
  -32.2400    5.3690    8.5070 C   0  0  0  0  0  0  0  0  0  0  0  0
  -33.3440    6.1170    8.0880 C   0  0  0  0  0  0  0  0  0  0  0  0
  -34.5950    5.7980    8.6330 C   0  0  0  0  0  0  0  0  0  0  0  0
  -35.8200    6.3900    8.4300 N   0  0  0  0  0  0  0  0  0  0  0  0
  -36.7900    5.7910    9.1980 C   0  0  0  0  0  0  0  0  0  0  0  0
  -38.1550    6.0840    9.3120 C   0  0  0  0  0  0  0  0  0  0  0  0
  -38.9070    5.3330   10.2200 C   0  0  0  0  0  0  0  0  0  0  0  0
  -38.3150    4.3300   10.9830 C   0  0  0  0  0  0  0  0  0  0  0  0
  -36.9500    4.0480   10.8530 C   0  0  0  0  0  0  0  0  0  0  0  0
  -36.1660    4.7820    9.9360 C   0  0  0  0  0  0  0  0  0  0  0  0
  -34.7810    4.7650    9.5560 C   0  0  0  0  0  0  0  0  0  0  0  0
  -29.0959   -1.2618   12.2648 H   0  0  0  0  0  0  0  0  0  0  0  0
  -30.1351   -0.8626   10.8551 H   0  0  0  0  0  0  0  0  0  0  0  0
  -28.4016   -0.3915   10.8551 H   0  0  0  0  0  0  0  0  0  0  0  0
  -28.7494    1.4311   12.1318 H   0  0  0  0  0  0  0  0  0  0  0  0
  -29.3787    0.9238   14.2612 H   0  0  0  0  0  0  0  0  0  0  0  0
  -31.0612    1.2311   13.7120 H   0  0  0  0  0  0  0  0  0  0  0  0
  -30.4079   -0.4422   13.7120 H   0  0  0  0  0  0  0  0  0  0  0  0
  -30.6670    2.5110   11.4470 H   0  0  0  0  0  0  0  0  0  0  0  0
  -30.5910    1.3020   10.3410 H   0  0  0  0  0  0  0  0  0  0  0  0
  -32.1217    0.2477   12.4176 H   0  0  0  0  0  0  0  0  0  0  0  0
  -32.6652    1.9545   12.1640 H   0  0  0  0  0  0  0  0  0  0  0  0
  -33.4904   -0.2778   10.6974 H   0  0  0  0  0  0  0  0  0  0  0  0
  -32.5860    0.3170    8.5770 H   0  0  0  0  0  0  0  0  0  0  0  0
  -33.9735    1.8918    9.0000 H   0  0  0  0  0  0  0  0  0  0  0  0
  -35.0172    1.3495   10.3491 H   0  0  0  0  0  0  0  0  0  0  0  0
  -31.5055    3.7513    9.7368 H   0  0  0  0  0  0  0  0  0  0  0  0
  -31.2407    5.6111    8.1162 H   0  0  0  0  0  0  0  0  0  0  0  0
  -33.2344    6.9294    7.3545 H   0  0  0  0  0  0  0  0  0  0  0  0
  -35.9800    7.1880    7.8300 H   0  0  0  0  0  0  0  0  0  0  0  0
  -38.6191    6.8776    8.7079 H   0  0  0  0  0  0  0  0  0  0  0  0
  -39.9819    5.5374   10.3334 H   0  0  0  0  0  0  0  0  0  0  0  0
  -38.9253    3.7541   11.6942 H   0  0  0  0  0  0  0  0  0  0  0  0
  -36.4895    3.2571   11.4633 H   0  0  0  0  0  0  0  0  0  0  0  0
  1  2  1  0
  2  3  1  0
  2  4  1  0
  4  5  1  0
  5  6  1  0
  6  7  1  0
  6  8  1  0
  8  9  1  0
  9 10  1  0
 10 11  1  0
 11 12  2  0
 12 13  1  0
 13 14  2  0
 14 15  1  0
 15 16  1  0
 16 17  2  0
 17 18  1  0
 18 19  2  0
 19 20  1  0
 20 21  2  0
 21 22  1  0
 22 10  2  0
 22 14  1  0
 21 16  1  0
  1 23  1  0
  1 24  1  0
  1 25  1  0
  2 26  1  0
  3 27  1  0
  3 28  1  0
  3 29  1  0
  4 30  1  0
  4 31  1  0
  5 32  1  0
  5 33  1  0
  6 34  1  1
  7 35  1  0
  8 36  1  0
  8 37  1  0
 11 38  1  0
 12 39  1  0
 13 40  1  0
 15 41  1  0
 17 42  1  0
 18 43  1  0
 19 44  1  0
 20 45  1  0
M  CHG  1   4   1
M  END
>  <meeko>  (7) 
{"is_sidechain": false}

>  <vina_kcal_mol>  (7) 
-7.653

>  <rmsd_cristal>  (7) 
10.07

$$$$
pose 8
     RDKit          3D

 45 47  0  0  0  0  0  0  0  0999 V2000
  -35.6190    3.8260   10.4180 C   0  0  0  0  0  0  0  0  0  0  0  0
  -35.9200    3.5590    8.9490 C   0  0  0  0  0  0  0  0  0  0  0  0
  -34.9390    2.5490    8.3590 C   0  0  0  0  0  0  0  0  0  0  0  0
  -35.8000    4.8340    8.1530 N   0  0  0  0  0  0  0  0  0  0  0  0
  -34.4670    5.0620    7.4860 C   0  0  0  0  0  0  0  0  0  0  0  0
  -33.8620    6.4120    7.8970 C   0  0  2  0  0  0  0  0  0  0  0  0
  -34.8790    7.4120    7.8070 O   0  0  0  0  0  0  0  0  0  0  0  0
  -32.6810    6.7990    6.9980 C   0  0  0  0  0  0  0  0  0  0  0  0
  -32.0220    7.9380    7.5730 O   0  0  0  0  0  0  0  0  0  0  0  0
  -30.6710    7.6880    7.7310 C   0  0  0  0  0  0  0  0  0  0  0  0
  -30.3150    6.4940    8.3670 C   0  0  0  0  0  0  0  0  0  0  0  0
  -28.9740    6.1640    8.5440 C   0  0  0  0  0  0  0  0  0  0  0  0
  -27.9600    7.0190    8.1030 C   0  0  0  0  0  0  0  0  0  0  0  0
  -28.3380    8.2300    7.5070 C   0  0  0  0  0  0  0  0  0  0  0  0
  -27.5580    9.2570    7.0290 N   0  0  0  0  0  0  0  0  0  0  0  0
  -28.3360   10.2890    6.5600 C   0  0  0  0  0  0  0  0  0  0  0  0
  -27.9580   11.5210    6.0100 C   0  0  0  0  0  0  0  0  0  0  0  0
  -28.9740   12.4140    5.6580 C   0  0  0  0  0  0  0  0  0  0  0  0
  -30.3140   12.0870    5.8530 C   0  0  0  0  0  0  0  0  0  0  0  0
  -30.6730   10.8500    6.4010 C   0  0  0  0  0  0  0  0  0  0  0  0
  -29.6690    9.9220    6.7550 C   0  0  0  0  0  0  0  0  0  0  0  0
  -29.6730    8.6040    7.3270 C   0  0  0  0  0  0  0  0  0  0  0  0
  -36.2948    3.2265   11.0456 H   0  0  0  0  0  0  0  0  0  0  0  0
  -34.5764    3.5503   10.6347 H   0  0  0  0  0  0  0  0  0  0  0  0
  -35.7684    4.8941   10.6347 H   0  0  0  0  0  0  0  0  0  0  0  0
  -36.9433    3.1593    8.8933 H   0  0  0  0  0  0  0  0  0  0  0  0
  -34.4241    2.0189    9.1738 H   0  0  0  0  0  0  0  0  0  0  0  0
  -35.4873    1.8244    7.7390 H   0  0  0  0  0  0  0  0  0  0  0  0
  -34.1987    3.0759    7.7390 H   0  0  0  0  0  0  0  0  0  0  0  0
  -36.5370    4.8520    7.4320 H   0  0  0  0  0  0  0  0  0  0  0  0
  -36.0120    5.6200    8.7840 H   0  0  0  0  0  0  0  0  0  0  0  0
  -33.7775    4.2563    7.7783 H   0  0  0  0  0  0  0  0  0  0  0  0
  -34.6198    5.0669    6.3967 H   0  0  0  0  0  0  0  0  0  0  0  0
  -33.4848    6.3302    8.9271 H   0  0  0  0  0  0  0  0  0  0  0  0
  -34.6060    8.1580    8.3810 H   0  0  0  0  0  0  0  0  0  0  0  0
  -31.9755    5.9577    6.9302 H   0  0  0  0  0  0  0  0  0  0  0  0
  -33.0417    7.0435    5.9880 H   0  0  0  0  0  0  0  0  0  0  0  0
  -31.0986    5.8123    8.7292 H   0  0  0  0  0  0  0  0  0  0  0  0
  -28.7089    5.2174    9.0377 H   0  0  0  0  0  0  0  0  0  0  0  0
  -26.8998    6.7502    8.2199 H   0  0  0  0  0  0  0  0  0  0  0  0
  -26.5480    9.2730    7.0570 H   0  0  0  0  0  0  0  0  0  0  0  0
  -26.8986   11.7765    5.8604 H   0  0  0  0  0  0  0  0  0  0  0  0
  -28.7118   13.3887    5.2208 H   0  0  0  0  0  0  0  0  0  0  0  0
  -31.0970   12.8074    5.5738 H   0  0  0  0  0  0  0  0  0  0  0  0
  -31.7334   10.6016    6.5554 H   0  0  0  0  0  0  0  0  0  0  0  0
  1  2  1  0
  2  3  1  0
  2  4  1  0
  4  5  1  0
  5  6  1  0
  6  7  1  0
  6  8  1  0
  8  9  1  0
  9 10  1  0
 10 11  1  0
 11 12  2  0
 12 13  1  0
 13 14  2  0
 14 15  1  0
 15 16  1  0
 16 17  2  0
 17 18  1  0
 18 19  2  0
 19 20  1  0
 20 21  2  0
 21 22  1  0
 22 10  2  0
 22 14  1  0
 21 16  1  0
  1 23  1  0
  1 24  1  0
  1 25  1  0
  2 26  1  0
  3 27  1  0
  3 28  1  0
  3 29  1  0
  4 30  1  0
  4 31  1  0
  5 32  1  0
  5 33  1  0
  6 34  1  1
  7 35  1  0
  8 36  1  0
  8 37  1  0
 11 38  1  0
 12 39  1  0
 13 40  1  0
 15 41  1  0
 17 42  1  0
 18 43  1  0
 19 44  1  0
 20 45  1  0
M  CHG  1   4   1
M  END
>  <meeko>  (8) 
{"is_sidechain": false}

>  <vina_kcal_mol>  (8) 
-7.547

>  <rmsd_cristal>  (8) 
4.54

$$$$
pose 9
     RDKit          3D

 45 47  0  0  0  0  0  0  0  0999 V2000
  -36.8840    1.3160   10.6880 C   0  0  0  0  0  0  0  0  0  0  0  0
  -37.7960    2.4730   11.0740 C   0  0  0  0  0  0  0  0  0  0  0  0
  -39.2510    2.0210   11.1700 C   0  0  0  0  0  0  0  0  0  0  0  0
  -37.7220    3.5650   10.0360 N   0  0  0  0  0  0  0  0  0  0  0  0
  -37.8510    4.9720   10.5610 C   0  0  0  0  0  0  0  0  0  0  0  0
  -36.5620    5.7730   10.3260 C   0  0  2  0  0  0  0  0  0  0  0  0
  -36.6070    6.3310    9.0100 O   0  0  0  0  0  0  0  0  0  0  0  0
  -35.3150    4.8900   10.4650 C   0  0  0  0  0  0  0  0  0  0  0  0
  -34.8620    4.5270    9.1520 O   0  0  0  0  0  0  0  0  0  0  0  0
  -33.5180    4.8160    9.0050 C   0  0  0  0  0  0  0  0  0  0  0  0
  -33.1900    6.0750    8.4900 C   0  0  0  0  0  0  0  0  0  0  0  0
  -31.8580    6.4450    8.3320 C   0  0  0  0  0  0  0  0  0  0  0  0
  -30.8230    5.5690    8.6730 C   0  0  0  0  0  0  0  0  0  0  0  0
  -31.1730    4.2960    9.1460 C   0  0  0  0  0  0  0  0  0  0  0  0
  -30.3690    3.2410    9.5090 N   0  0  0  0  0  0  0  0  0  0  0  0
  -31.1230    2.1520    9.8790 C   0  0  0  0  0  0  0  0  0  0  0  0
  -30.7180    0.8780   10.2970 C   0  0  0  0  0  0  0  0  0  0  0  0
  -31.7140   -0.0640   10.5670 C   0  0  0  0  0  0  0  0  0  0  0  0
  -33.0620    0.2560   10.4220 C   0  0  0  0  0  0  0  0  0  0  0  0
  -33.4480    1.5360   10.0070 C   0  0  0  0  0  0  0  0  0  0  0  0
  -32.4650    2.5130    9.7370 C   0  0  0  0  0  0  0  0  0  0  0  0
  -32.4990    3.8820    9.3020 C   0  0  0  0  0  0  0  0  0  0  0  0
  -36.5017    0.8310   11.5983 H   0  0  0  0  0  0  0  0  0  0  0  0
  -37.4511    0.5847   10.0935 H   0  0  0  0  0  0  0  0  0  0  0  0
  -36.0404    1.6967   10.0935 H   0  0  0  0  0  0  0  0  0  0  0  0
  -37.4561    2.8426   12.0527 H   0  0  0  0  0  0  0  0  0  0  0  0
  -39.5382    1.9318   12.2281 H   0  0  0  0  0  0  0  0  0  0  0  0
  -39.8981    2.7605   10.6755 H   0  0  0  0  0  0  0  0  0  0  0  0
  -39.3652    1.0451   10.6755 H   0  0  0  0  0  0  0  0  0  0  0  0
  -36.8300    3.4830    9.5250 H   0  0  0  0  0  0  0  0  0  0  0  0
  -38.4580    3.3850    9.3380 H   0  0  0  0  0  0  0  0  0  0  0  0
  -38.6836    5.4726   10.0450 H   0  0  0  0  0  0  0  0  0  0  0  0
  -38.0385    4.9238   11.6438 H   0  0  0  0  0  0  0  0  0  0  0  0
  -36.4968    6.5663   11.0852 H   0  0  0  0  0  0  0  0  0  0  0  0
  -35.6820    6.4060    8.6940 H   0  0  0  0  0  0  0  0  0  0  0  0
  -34.5239    5.4460   10.9894 H   0  0  0  0  0  0  0  0  0  0  0  0
  -35.5575    3.9855   11.0422 H   0  0  0  0  0  0  0  0  0  0  0  0
  -33.9895    6.7761    8.2085 H   0  0  0  0  0  0  0  0  0  0  0  0
  -31.6158    7.4411    7.9331 H   0  0  0  0  0  0  0  0  0  0  0  0
  -29.7692    5.8684    8.5736 H   0  0  0  0  0  0  0  0  0  0  0  0
  -29.3600    3.2460    9.4680 H   0  0  0  0  0  0  0  0  0  0  0  0
  -29.6527    0.6277   10.4088 H   0  0  0  0  0  0  0  0  0  0  0  0
  -31.4294   -1.0733   10.8990 H   0  0  0  0  0  0  0  0  0  0  0  0
  -33.8291   -0.5030   10.6353 H   0  0  0  0  0  0  0  0  0  0  0  0
  -34.5144    1.7801    9.8915 H   0  0  0  0  0  0  0  0  0  0  0  0
  1  2  1  0
  2  3  1  0
  2  4  1  0
  4  5  1  0
  5  6  1  0
  6  7  1  0
  6  8  1  0
  8  9  1  0
  9 10  1  0
 10 11  1  0
 11 12  2  0
 12 13  1  0
 13 14  2  0
 14 15  1  0
 15 16  1  0
 16 17  2  0
 17 18  1  0
 18 19  2  0
 19 20  1  0
 20 21  2  0
 21 22  1  0
 22 10  2  0
 22 14  1  0
 21 16  1  0
  1 23  1  0
  1 24  1  0
  1 25  1  0
  2 26  1  0
  3 27  1  0
  3 28  1  0
  3 29  1  0
  4 30  1  0
  4 31  1  0
  5 32  1  0
  5 33  1  0
  6 34  1  1
  7 35  1  0
  8 36  1  0
  8 37  1  0
 11 38  1  0
 12 39  1  0
 13 40  1  0
 15 41  1  0
 17 42  1  0
 18 43  1  0
 19 44  1  0
 20 45  1  0
M  CHG  1   4   1
M  END
>  <meeko>  (9) 
{"is_sidechain": false}

>  <vina_kcal_mol>  (9) 
-7.052

>  <rmsd_cristal>  (9) 
7.93

$$$$
