carazolol (2RH1/CAU)
     RDKit          3D

 45 47  0  0  0  0  0  0  0  0999 V2000
  -33.4770   10.9570    8.1700 O   0  0  0  0  0  0  0  0  0  0  0  0
  -32.2670   10.2300    8.0410 C   0  0  1  0  0  0  0  0  0  0  0  0
  -32.4780    8.9510    7.2250 C   0  0  0  0  0  0  0  0  0  0  0  0
  -33.7020    8.2500    7.6000 N   0  0  0  0  0  0  0  0  0  0  0  0
  -33.8060    6.8050    7.4980 C   0  0  0  0  0  0  0  0  0  0  0  0
  -33.5330    6.3850    6.0550 C   0  0  0  0  0  0  0  0  0  0  0  0
  -35.1840    6.3500    7.9880 C   0  0  0  0  0  0  0  0  0  0  0  0
  -31.2420   11.1050    7.3640 C   0  0  0  0  0  0  0  0  0  0  0  0
  -30.0490   10.3670    7.1820 O   0  0  0  0  0  0  0  0  0  0  0  0
  -28.9310   10.8570    6.5810 C   0  0  0  0  0  0  0  0  0  0  0  0
  -28.9110   12.1330    6.0050 C   0  0  0  0  0  0  0  0  0  0  0  0
  -27.7680   12.6280    5.3930 C   0  0  0  0  0  0  0  0  0  0  0  0
  -26.6080   11.8750    5.3320 C   0  0  0  0  0  0  0  0  0  0  0  0
  -26.5650   10.6250    5.8750 C   0  0  0  0  0  0  0  0  0  0  0  0
  -27.7680   10.1080    6.5170 C   0  0  0  0  0  0  0  0  0  0  0  0
  -25.5930    9.6570    5.9740 N   0  0  0  0  0  0  0  0  0  0  0  0
  -26.0960    8.5610    6.6370 C   0  0  0  0  0  0  0  0  0  0  0  0
  -27.4820    8.8630    6.9760 C   0  0  0  0  0  0  0  0  0  0  0  0
  -25.5890    7.3380    7.0090 C   0  0  0  0  0  0  0  0  0  0  0  0
  -26.3950    6.4320    7.6890 C   0  0  0  0  0  0  0  0  0  0  0  0
  -27.7170    6.7310    8.0060 C   0  0  0  0  0  0  0  0  0  0  0  0
  -28.2690    7.9480    7.6520 C   0  0  0  0  0  0  0  0  0  0  0  0
  -33.6859   11.0825    9.1295 H   0  0  0  0  0  0  0  0  0  0  0  0
  -31.9165    9.9398    9.0425 H   0  0  0  0  0  0  0  0  0  0  0  0
  -32.5351    9.2169    6.1591 H   0  0  0  0  0  0  0  0  0  0  0  0
  -31.6305    8.2795    7.4269 H   0  0  0  0  0  0  0  0  0  0  0  0
  -33.8826    8.4862    8.5861 H   0  0  0  0  0  0  0  0  0  0  0  0
  -34.3715    8.5728    6.8869 H   0  0  0  0  0  0  0  0  0  0  0  0
  -33.0564    6.3168    8.1382 H   0  0  0  0  0  0  0  0  0  0  0  0
  -32.9335    5.4627    6.0487 H   0  0  0  0  0  0  0  0  0  0  0  0
  -34.4875    6.2054    5.5386 H   0  0  0  0  0  0  0  0  0  0  0  0
  -32.9814    7.1844    5.5386 H   0  0  0  0  0  0  0  0  0  0  0  0
  -35.1988    6.3451    9.0879 H   0  0  0  0  0  0  0  0  0  0  0  0
  -35.9530    7.0419    7.6140 H   0  0  0  0  0  0  0  0  0  0  0  0
  -35.3898    5.3362    7.6140 H   0  0  0  0  0  0  0  0  0  0  0  0
  -31.6254   11.4319    6.3862 H   0  0  0  0  0  0  0  0  0  0  0  0
  -31.0393   11.9879    7.9880 H   0  0  0  0  0  0  0  0  0  0  0  0
  -29.8179   12.7546    6.0382 H   0  0  0  0  0  0  0  0  0  0  0  0
  -27.7840   13.6345    4.9494 H   0  0  0  0  0  0  0  0  0  0  0  0
  -25.7142   12.2882    4.8418 H   0  0  0  0  0  0  0  0  0  0  0  0
  -24.6340    9.7398    5.6075 H   0  0  0  0  0  0  0  0  0  0  0  0
  -24.5477    7.0771    6.7690 H   0  0  0  0  0  0  0  0  0  0  0  0
  -25.9787    5.4572    7.9831 H   0  0  0  0  0  0  0  0  0  0  0  0
  -28.3286    5.9915    8.5436 H   0  0  0  0  0  0  0  0  0  0  0  0
  -29.3136    8.1842    7.9030 H   0  0  0  0  0  0  0  0  0  0  0  0
  2  1  1  0
  3  2  1  0
  4  3  1  0
  5  4  1  0
  6  5  1  0
  7  5  1  0
  8  2  1  0
  9  8  1  0
 10  9  1  0
 11 10  1  0
 12 11  2  0
 13 12  1  0
 14 13  2  0
 15 10  2  0
 15 14  1  0
 16 14  1  0
 17 16  1  0
 18 15  1  0
 18 17  1  0
 19 17  2  0
 20 19  1  0
 21 20  2  0
 22 21  1  0
 22 18  2  0
  1 23  1  0
  2 24  1  1
  3 25  1  0
  3 26  1  0
  4 27  1  0
  4 28  1  0
  5 29  1  0
  6 30  1  0
  6 31  1  0
  6 32  1  0
  7 33  1  0
  7 34  1  0
  7 35  1  0
  8 36  1  0
  8 37  1  0
 11 38  1  0
 12 39  1  0
 13 40  1  0
 16 41  1  0
 19 42  1  0
 20 43  1  0
 21 44  1  0
 22 45  1  0
M  CHG  1   4   1
M  END
$$$$
