pose 1
     RDKit          3D

 41 45  0  0  0  0  0  0  0  0999 V2000
  136.5470  124.9940  136.0820 C   0  0  0  0  0  0  0  0  0  0  0  0
  137.5300  125.4550  135.0410 N   0  0  0  0  0  0  0  0  0  0  0  0
  136.8460  125.9310  133.7880 C   0  0  0  0  0  0  0  0  0  0  0  0
  137.8650  126.4720  132.7830 C   0  0  0  0  0  0  0  0  0  0  0  0
  139.1920  125.6670  132.7490 C   0  0  2  0  0  0  0  0  0  0  0  0
  140.2080  126.3730  133.5940 C   0  0  0  0  0  0  0  0  0  0  0  0
  140.5300  126.1250  134.9180 C   0  0  0  0  0  0  0  0  0  0  0  0
  141.5150  126.9290  135.4960 C   0  0  0  0  0  0  0  0  0  0  0  0
  142.1650  127.9240  134.7320 C   0  0  0  0  0  0  0  0  0  0  0  0
  141.8710  128.0870  133.3750 C   0  0  0  0  0  0  0  0  0  0  0  0
  142.5400  128.9740  132.5930 O   0  0  0  0  0  0  0  0  0  0  0  0
  140.9060  127.2800  132.8190 C   0  0  0  0  0  0  0  0  0  0  0  0
  140.5910  127.1580  131.4810 O   0  0  0  0  0  0  0  0  0  0  0  0
  139.9460  125.8400  131.4140 C   0  0  1  0  0  0  0  0  0  0  0  0
  141.0010  124.7290  131.0950 C   0  0  1  0  0  0  0  0  0  0  0  0
  142.3430  125.1790  131.2550 O   0  0  0  0  0  0  0  0  0  0  0  0
  140.9000  123.4870  131.9320 C   0  0  0  0  0  0  0  0  0  0  0  0
  140.0120  123.2670  132.9120 C   0  0  0  0  0  0  0  0  0  0  0  0
  138.9420  124.2540  133.2790 C   0  0  1  0  0  0  0  0  0  0  0  0
  138.6730  124.4130  134.8120 C   0  0  1  0  0  0  0  0  0  0  0  0
  139.9140  124.9310  135.5950 C   0  0  0  0  0  0  0  0  0  0  0  0
  136.9572  125.1864  137.0844 H   0  0  0  0  0  0  0  0  0  0  0  0
  135.6011  125.5424  135.9615 H   0  0  0  0  0  0  0  0  0  0  0  0
  136.3638  123.9161  135.9615 H   0  0  0  0  0  0  0  0  0  0  0  0
  137.9740  126.3010  135.4310 H   0  0  0  0  0  0  0  0  0  0  0  0
  136.3022  125.0902  133.3326 H   0  0  0  0  0  0  0  0  0  0  0  0
  136.1493  126.7400  134.0529 H   0  0  0  0  0  0  0  0  0  0  0  0
  137.4141  126.4418  131.7801 H   0  0  0  0  0  0  0  0  0  0  0  0
  138.1166  127.4955  133.0979 H   0  0  0  0  0  0  0  0  0  0  0  0
  141.7864  126.7867  136.5525 H   0  0  0  0  0  0  0  0  0  0  0  0
  142.9100  128.5771  135.2098 H   0  0  0  0  0  0  0  0  0  0  0  0
  143.4260  128.6270  132.3960 H   0  0  0  0  0  0  0  0  0  0  0  0
  139.2200  125.7525  130.5922 H   0  0  0  0  0  0  0  0  0  0  0  0
  140.7606  124.4913  130.0483 H   0  0  0  0  0  0  0  0  0  0  0  0
  142.7610  124.6030  131.9250 H   0  0  0  0  0  0  0  0  0  0  0  0
  141.6210  122.6833  131.7219 H   0  0  0  0  0  0  0  0  0  0  0  0
  140.0699  122.3218  133.4717 H   0  0  0  0  0  0  0  0  0  0  0  0
  138.0663  123.7965  132.7954 H   0  0  0  0  0  0  0  0  0  0  0  0
  138.4070  123.4113  135.1805 H   0  0  0  0  0  0  0  0  0  0  0  0
  139.6030  125.2163  136.6108 H   0  0  0  0  0  0  0  0  0  0  0  0
  140.6634  124.1265  135.6282 H   0  0  0  0  0  0  0  0  0  0  0  0
  1  2  1  0
  2  3  1  0
  3  4  1  0
  5  4  1  6
  5  6  1  0
  6  7  2  0
  7  8  1  0
  8  9  2  0
  9 10  1  0
 10 11  1  0
 10 12  2  0
 12 13  1  0
 13 14  1  0
 14 15  1  0
 15 16  1  0
 15 17  1  0
 17 18  2  0
 18 19  1  0
 19 20  1  0
 20 21  1  0
 20  2  1  0
 14  5  1  0
 19  5  1  0
 12  6  1  0
 21  7  1  0
  1 22  1  0
  1 23  1  0
  1 24  1  0
  2 25  1  0
  3 26  1  0
  3 27  1  0
  4 28  1  0
  4 29  1  0
  8 30  1  0
  9 31  1  0
 11 32  1  0
 14 33  1  6
 15 34  1  6
 16 35  1  0
 17 36  1  0
 18 37  1  0
 19 38  1  6
 20 39  1  1
 21 40  1  0
 21 41  1  0
M  CHG  1   2   1
M  END
>  <meeko>  (1) 
{"is_sidechain": false}

>  <vina_kcal_mol>  (1) 
-7.747

>  <rmsd_cristal>  (1) 
5.04

$$$$
pose 2
     RDKit          3D

 41 45  0  0  0  0  0  0  0  0999 V2000
  136.7470  123.4820  137.1550 C   0  0  0  0  0  0  0  0  0  0  0  0
  137.5840  123.8070  135.9480 N   0  0  0  0  0  0  0  0  0  0  0  0
  138.3610  122.6140  135.4610 C   0  0  0  0  0  0  0  0  0  0  0  0
  139.1350  122.9510  134.1850 C   0  0  0  0  0  0  0  0  0  0  0  0
  139.7280  124.3860  134.1790 C   0  0  2  0  0  0  0  0  0  0  0  0
  138.8070  125.2870  133.4140 C   0  0  0  0  0  0  0  0  0  0  0  0
  137.8110  126.1060  133.9180 C   0  0  0  0  0  0  0  0  0  0  0  0
  137.0740  126.8540  132.9960 C   0  0  0  0  0  0  0  0  0  0  0  0
  137.3730  126.7850  131.6160 C   0  0  0  0  0  0  0  0  0  0  0  0
  138.4420  126.0110  131.1570 C   0  0  0  0  0  0  0  0  0  0  0  0
  138.8110  125.9930  129.8500 O   0  0  0  0  0  0  0  0  0  0  0  0
  139.1640  125.2890  132.0790 C   0  0  0  0  0  0  0  0  0  0  0  0
  140.3460  124.6090  131.8650 O   0  0  0  0  0  0  0  0  0  0  0  0
  140.9230  124.5200  133.2130 C   0  0  1  0  0  0  0  0  0  0  0  0
  141.8680  125.7370  133.4850 C   0  0  1  0  0  0  0  0  0  0  0  0
  141.7120  126.7830  132.5300 O   0  0  0  0  0  0  0  0  0  0  0  0
  141.6980  126.3980  134.8230 C   0  0  0  0  0  0  0  0  0  0  0  0
  140.8160  126.0440  135.7690 C   0  0  0  0  0  0  0  0  0  0  0  0
  139.8840  124.8770  135.6200 C   0  0  1  0  0  0  0  0  0  0  0  0
  138.4310  125.1050  136.1540 C   0  0  1  0  0  0  0  0  0  0  0  0
  137.6840  126.2500  135.4100 C   0  0  0  0  0  0  0  0  0  0  0  0
  137.3187  123.7040  138.0682 H   0  0  0  0  0  0  0  0  0  0  0  0
  135.8301  124.0894  137.1397 H   0  0  0  0  0  0  0  0  0  0  0  0
  136.4802  122.4149  137.1397 H   0  0  0  0  0  0  0  0  0  0  0  0
  136.9140  124.0080  135.1890 H   0  0  0  0  0  0  0  0  0  0  0  0
  139.0710  122.3034  136.2416 H   0  0  0  0  0  0  0  0  0  0  0  0
  137.6543  121.8007  135.2392 H   0  0  0  0  0  0  0  0  0  0  0  0
  139.9614  122.2327  134.0795 H   0  0  0  0  0  0  0  0  0  0  0  0
  138.4215  122.8931  133.3498 H   0  0  0  0  0  0  0  0  0  0  0  0
  136.2560  127.5006  133.3463 H   0  0  0  0  0  0  0  0  0  0  0  0
  136.7583  127.3460  130.8967 H   0  0  0  0  0  0  0  0  0  0  0  0
  138.1420  125.5150  129.3310 H   0  0  0  0  0  0  0  0  0  0  0  0
  141.5778  123.6468  133.3495 H   0  0  0  0  0  0  0  0  0  0  0  0
  142.8586  125.2621  133.4290 H   0  0  0  0  0  0  0  0  0  0  0  0
  140.9600  126.5370  131.9560 H   0  0  0  0  0  0  0  0  0  0  0  0
  142.3569  127.2498  135.0472 H   0  0  0  0  0  0  0  0  0  0  0  0
  140.7736  126.6353  136.6956 H   0  0  0  0  0  0  0  0  0  0  0  0
  140.3936  124.1275  136.2434 H   0  0  0  0  0  0  0  0  0  0  0  0
  138.5349  125.3732  137.2157 H   0  0  0  0  0  0  0  0  0  0  0  0
  136.6190  126.2201  135.6836 H   0  0  0  0  0  0  0  0  0  0  0  0
  138.1349  127.2087  135.7060 H   0  0  0  0  0  0  0  0  0  0  0  0
  1  2  1  0
  2  3  1  0
  3  4  1  0
  5  4  1  1
  5  6  1  0
  6  7  2  0
  7  8  1  0
  8  9  2  0
  9 10  1  0
 10 11  1  0
 10 12  2  0
 12 13  1  0
 13 14  1  0
 14 15  1  0
 15 16  1  0
 15 17  1  0
 17 18  2  0
 18 19  1  0
 19 20  1  0
 20 21  1  0
 20  2  1  0
 14  5  1  0
 19  5  1  0
 12  6  1  0
 21  7  1  0
  1 22  1  0
  1 23  1  0
  1 24  1  0
  2 25  1  0
  3 26  1  0
  3 27  1  0
  4 28  1  0
  4 29  1  0
  8 30  1  0
  9 31  1  0
 11 32  1  0
 14 33  1  6
 15 34  1  1
 16 35  1  0
 17 36  1  0
 18 37  1  0
 19 38  1  1
 20 39  1  1
 21 40  1  0
 21 41  1  0
M  CHG  1   2   1
M  END
>  <meeko>  (2) 
{"is_sidechain": false}

>  <vina_kcal_mol>  (2) 
-7.717

>  <rmsd_cristal>  (2) 
4.73

$$$$
pose 3
     RDKit          3D

 41 45  0  0  0  0  0  0  0  0999 V2000
  140.9190  124.5900  129.0830 C   0  0  0  0  0  0  0  0  0  0  0  0
  140.3070  124.9090  130.4190 N   0  0  0  0  0  0  0  0  0  0  0  0
  139.5150  126.1890  130.3870 C   0  0  0  0  0  0  0  0  0  0  0  0
  138.8340  126.4430  131.7340 C   0  0  0  0  0  0  0  0  0  0  0  0
  139.7020  126.0350  132.9550 C   0  0  2  0  0  0  0  0  0  0  0  0
  139.2760  124.6750  133.4180 C   0  0  0  0  0  0  0  0  0  0  0  0
  139.8370  123.4520  133.0870 C   0  0  0  0  0  0  0  0  0  0  0  0
  139.2530  122.3120  133.6450 C   0  0  0  0  0  0  0  0  0  0  0  0
  138.1590  122.4280  134.5320 C   0  0  0  0  0  0  0  0  0  0  0  0
  137.6770  123.6850  134.9060 C   0  0  0  0  0  0  0  0  0  0  0  0
  136.6860  123.8340  135.8240 O   0  0  0  0  0  0  0  0  0  0  0  0
  138.2690  124.7990  134.3560 C   0  0  0  0  0  0  0  0  0  0  0  0
  138.0660  126.1150  134.7170 O   0  0  0  0  0  0  0  0  0  0  0  0
  139.2870  126.7790  134.2410 C   0  0  1  0  0  0  0  0  0  0  0  0
  140.3680  126.8110  135.3720 C   0  0  1  0  0  0  0  0  0  0  0  0
  140.0600  125.9410  136.4570 O   0  0  0  0  0  0  0  0  0  0  0  0
  141.7570  126.4310  134.9450 C   0  0  0  0  0  0  0  0  0  0  0  0
  142.1280  126.0640  133.7100 C   0  0  0  0  0  0  0  0  0  0  0  0
  141.1770  126.0260  132.5490 C   0  0  1  0  0  0  0  0  0  0  0  0
  141.3480  124.8080  131.5820 C   0  0  1  0  0  0  0  0  0  0  0  0
  141.1060  123.4380  132.2800 C   0  0  0  0  0  0  0  0  0  0  0  0
  141.8853  124.0863  129.2332 H   0  0  0  0  0  0  0  0  0  0  0  0
  140.2446  123.9287  128.5192 H   0  0  0  0  0  0  0  0  0  0  0  0
  141.0748  125.5216  128.5192 H   0  0  0  0  0  0  0  0  0  0  0  0
  139.6030  124.1730  130.5870 H   0  0  0  0  0  0  0  0  0  0  0  0
  140.1922  127.0262  130.1622 H   0  0  0  0  0  0  0  0  0  0  0  0
  138.7396  126.1035  129.6114 H   0  0  0  0  0  0  0  0  0  0  0  0
  138.6065  127.5164  131.8119 H   0  0  0  0  0  0  0  0  0  0  0  0
  137.9273  125.8207  131.7599 H   0  0  0  0  0  0  0  0  0  0  0  0
  139.6477  121.3169  133.3921 H   0  0  0  0  0  0  0  0  0  0  0  0
  137.6826  121.5206  134.9316 H   0  0  0  0  0  0  0  0  0  0  0  0
  136.7710  123.1470  136.5060 H   0  0  0  0  0  0  0  0  0  0  0  0
  139.1375  127.8403  133.9935 H   0  0  0  0  0  0  0  0  0  0  0  0
  140.3467  127.8708  135.6660 H   0  0  0  0  0  0  0  0  0  0  0  0
  140.4930  126.3100  137.2520 H   0  0  0  0  0  0  0  0  0  0  0  0
  142.5414  126.4561  135.7158 H   0  0  0  0  0  0  0  0  0  0  0  0
  143.1764  125.7779  133.5398 H   0  0  0  0  0  0  0  0  0  0  0  0
  141.4519  126.9541  132.0265 H   0  0  0  0  0  0  0  0  0  0  0  0
  142.3864  124.8494  131.2215 H   0  0  0  0  0  0  0  0  0  0  0  0
  141.0341  122.6529  131.5129 H   0  0  0  0  0  0  0  0  0  0  0  0
  141.9478  123.2417  132.9604 H   0  0  0  0  0  0  0  0  0  0  0  0
  1  2  1  0
  2  3  1  0
  3  4  1  0
  5  4  1  6
  5  6  1  0
  6  7  2  0
  7  8  1  0
  8  9  2  0
  9 10  1  0
 10 11  1  0
 10 12  2  0
 12 13  1  0
 13 14  1  0
 14 15  1  0
 15 16  1  0
 15 17  1  0
 17 18  2  0
 18 19  1  0
 19 20  1  0
 20 21  1  0
 20  2  1  0
 14  5  1  0
 19  5  1  0
 12  6  1  0
 21  7  1  0
  1 22  1  0
  1 23  1  0
  1 24  1  0
  2 25  1  0
  3 26  1  0
  3 27  1  0
  4 28  1  0
  4 29  1  0
  8 30  1  0
  9 31  1  0
 11 32  1  0
 14 33  1  6
 15 34  1  1
 16 35  1  0
 17 36  1  0
 18 37  1  0
 19 38  1  6
 20 39  1  6
 21 40  1  0
 21 41  1  0
M  CHG  1   2   1
M  END
>  <meeko>  (3) 
{"is_sidechain": false}

>  <vina_kcal_mol>  (3) 
-7.401

>  <rmsd_cristal>  (3) 
1.91

$$$$
pose 4
     RDKit          3D

 41 45  0  0  0  0  0  0  0  0999 V2000
  139.5300  125.3740  132.3240 C   0  0  0  0  0  0  0  0  0  0  0  0
  138.6560  125.2230  133.5390 N   0  0  0  0  0  0  0  0  0  0  0  0
  137.3500  125.9550  133.3900 C   0  0  0  0  0  0  0  0  0  0  0  0
  136.4480  125.7140  134.6030 C   0  0  0  0  0  0  0  0  0  0  0  0
  137.2200  125.6580  135.9490 C   0  0  2  0  0  0  0  0  0  0  0  0
  137.4600  124.2240  136.3100 C   0  0  0  0  0  0  0  0  0  0  0  0
  138.5920  123.4660  136.0620 C   0  0  0  0  0  0  0  0  0  0  0  0
  138.5760  122.1370  136.4930 C   0  0  0  0  0  0  0  0  0  0  0  0
  137.4530  121.6210  137.1800 C   0  0  0  0  0  0  0  0  0  0  0  0
  136.3650  122.4430  137.4840 C   0  0  0  0  0  0  0  0  0  0  0  0
  135.3110  122.0010  138.2190 O   0  0  0  0  0  0  0  0  0  0  0  0
  136.4010  123.7520  137.0620 C   0  0  0  0  0  0  0  0  0  0  0  0
  135.5250  124.7620  137.4030 O   0  0  0  0  0  0  0  0  0  0  0  0
  136.3130  125.9780  137.1550 C   0  0  1  0  0  0  0  0  0  0  0  0
  137.0630  126.4180  138.4560 C   0  0  1  0  0  0  0  0  0  0  0  0
  137.0730  125.4050  139.4580 O   0  0  0  0  0  0  0  0  0  0  0  0
  138.5020  126.8020  138.2700 C   0  0  0  0  0  0  0  0  0  0  0  0
  139.1790  126.7840  137.1120 C   0  0  0  0  0  0  0  0  0  0  0  0
  138.5470  126.4050  135.8040 C   0  0  1  0  0  0  0  0  0  0  0  0
  139.4330  125.5250  134.8620 C   0  0  1  0  0  0  0  0  0  0  0  0
  139.8030  124.1490  135.4870 C   0  0  0  0  0  0  0  0  0  0  0  0
  140.5684  125.5534  132.6393 H   0  0  0  0  0  0  0  0  0  0  0  0
  139.4832  124.4545  131.7221 H   0  0  0  0  0  0  0  0  0  0  0  0
  139.1774  126.2245  131.7221 H   0  0  0  0  0  0  0  0  0  0  0  0
  138.3930  124.2260  133.5710 H   0  0  0  0  0  0  0  0  0  0  0  0
  137.5496  127.0328  133.2979 H   0  0  0  0  0  0  0  0  0  0  0  0
  136.8379  125.5813  132.4911 H   0  0  0  0  0  0  0  0  0  0  0  0
  135.7126  126.5302  134.6574 H   0  0  0  0  0  0  0  0  0  0  0  0
  135.9727  124.7320  134.4621 H   0  0  0  0  0  0  0  0  0  0  0  0
  139.4423  121.4882  136.2967 H   0  0  0  0  0  0  0  0  0  0  0  0
  137.4358  120.5623  137.4779 H   0  0  0  0  0  0  0  0  0  0  0  0
  135.1570  121.0600  138.0320 H   0  0  0  0  0  0  0  0  0  0  0  0
  135.6962  126.8528  136.9016 H   0  0  0  0  0  0  0  0  0  0  0  0
  136.4799  127.3005  138.7581 H   0  0  0  0  0  0  0  0  0  0  0  0
  137.3260  124.5700  139.0190 H   0  0  0  0  0  0  0  0  0  0  0  0
  139.0518  127.1280  139.1652 H   0  0  0  0  0  0  0  0  0  0  0  0
  140.2440  127.0590  137.1212 H   0  0  0  0  0  0  0  0  0  0  0  0
  138.3981  127.3968  135.3521 H   0  0  0  0  0  0  0  0  0  0  0  0
  140.3543  126.0996  134.6858 H   0  0  0  0  0  0  0  0  0  0  0  0
  140.2399  123.5074  134.7076 H   0  0  0  0  0  0  0  0  0  0  0  0
  140.5239  124.3198  136.3001 H   0  0  0  0  0  0  0  0  0  0  0  0
  1  2  1  0
  2  3  1  0
  3  4  1  0
  5  4  1  6
  5  6  1  0
  6  7  2  0
  7  8  1  0
  8  9  2  0
  9 10  1  0
 10 11  1  0
 10 12  2  0
 12 13  1  0
 13 14  1  0
 14 15  1  0
 15 16  1  0
 15 17  1  0
 17 18  2  0
 18 19  1  0
 19 20  1  0
 20 21  1  0
 20  2  1  0
 14  5  1  0
 19  5  1  0
 12  6  1  0
 21  7  1  0
  1 22  1  0
  1 23  1  0
  1 24  1  0
  2 25  1  0
  3 26  1  0
  3 27  1  0
  4 28  1  0
  4 29  1  0
  8 30  1  0
  9 31  1  0
 11 32  1  0
 14 33  1  6
 15 34  1  1
 16 35  1  0
 17 36  1  0
 18 37  1  0
 19 38  1  6
 20 39  1  6
 21 40  1  0
 21 41  1  0
M  CHG  1   2   1
M  END
>  <meeko>  (4) 
{"is_sidechain": false}

>  <vina_kcal_mol>  (4) 
-7.366

>  <rmsd_cristal>  (4) 
2.56

$$$$
pose 5
     RDKit          3D

 41 45  0  0  0  0  0  0  0  0999 V2000
  137.6700  123.3340  136.9380 C   0  0  0  0  0  0  0  0  0  0  0  0
  137.8950  124.3850  135.8860 N   0  0  0  0  0  0  0  0  0  0  0  0
  136.6740  124.6000  135.0320 C   0  0  0  0  0  0  0  0  0  0  0  0
  136.9040  125.7320  134.0270 C   0  0  0  0  0  0  0  0  0  0  0  0
  138.3420  125.7610  133.4430 C   0  0  2  0  0  0  0  0  0  0  0  0
  139.1520  126.7700  134.2000 C   0  0  0  0  0  0  0  0  0  0  0  0
  139.9980  126.5450  135.2730 C   0  0  0  0  0  0  0  0  0  0  0  0
  140.6430  127.6570  135.8200 C   0  0  0  0  0  0  0  0  0  0  0  0
  140.4510  128.9410  135.2630 C   0  0  0  0  0  0  0  0  0  0  0  0
  139.6550  129.1130  134.1280 C   0  0  0  0  0  0  0  0  0  0  0  0
  139.5220  130.3190  133.5160 O   0  0  0  0  0  0  0  0  0  0  0  0
  139.0350  128.0070  133.5950 C   0  0  0  0  0  0  0  0  0  0  0  0
  138.3580  127.9270  132.3950 O   0  0  0  0  0  0  0  0  0  0  0  0
  138.4060  126.4910  132.0850 C   0  0  1  0  0  0  0  0  0  0  0  0
  139.6590  126.1620  131.2090 C   0  0  1  0  0  0  0  0  0  0  0  0
  140.6080  127.2240  131.1790 O   0  0  0  0  0  0  0  0  0  0  0  0
  140.4380  124.9500  131.6300 C   0  0  0  0  0  0  0  0  0  0  0  0
  140.1600  124.1590  132.6770 C   0  0  0  0  0  0  0  0  0  0  0  0
  138.9680  124.3700  133.5640 C   0  0  1  0  0  0  0  0  0  0  0  0
  139.2210  124.1460  135.0920 C   0  0  1  0  0  0  0  0  0  0  0  0
  140.2780  125.1240  135.6820 C   0  0  0  0  0  0  0  0  0  0  0  0
  137.7670  123.7871  137.9356 H   0  0  0  0  0  0  0  0  0  0  0  0
  136.6610  122.9111  136.8239 H   0  0  0  0  0  0  0  0  0  0  0  0
  138.4175  122.5351  136.8239 H   0  0  0  0  0  0  0  0  0  0  0  0
  138.0120  125.2730  136.3980 H   0  0  0  0  0  0  0  0  0  0  0  0
  136.4490  123.6726  134.4849 H   0  0  0  0  0  0  0  0  0  0  0  0
  135.8320  124.8744  135.6845 H   0  0  0  0  0  0  0  0  0  0  0  0
  136.1935  125.6093  133.1962 H   0  0  0  0  0  0  0  0  0  0  0  0
  136.7559  126.6786  134.5674 H   0  0  0  0  0  0  0  0  0  0  0  0
  141.3045  127.5320  136.6899 H   0  0  0  0  0  0  0  0  0  0  0  0
  140.9330  129.8138  135.7276 H   0  0  0  0  0  0  0  0  0  0  0  0
  140.0300  130.9880  134.0050 H   0  0  0  0  0  0  0  0  0  0  0  0
  137.5613  126.1500  131.4684 H   0  0  0  0  0  0  0  0  0  0  0  0
  139.1985  125.9840  130.2260 H   0  0  0  0  0  0  0  0  0  0  0  0
  141.2360  127.0680  131.9110 H   0  0  0  0  0  0  0  0  0  0  0  0
  141.3176  124.6863  131.0243 H   0  0  0  0  0  0  0  0  0  0  0  0
  140.8355  123.3187  132.8951 H   0  0  0  0  0  0  0  0  0  0  0  0
  138.2886  123.5931  133.1835 H   0  0  0  0  0  0  0  0  0  0  0  0
  139.5896  123.1144  135.1920 H   0  0  0  0  0  0  0  0  0  0  0  0
  140.2553  125.0562  136.7797 H   0  0  0  0  0  0  0  0  0  0  0  0
  141.2675  124.8402  135.2944 H   0  0  0  0  0  0  0  0  0  0  0  0
  1  2  1  0
  2  3  1  0
  3  4  1  0
  5  4  1  1
  5  6  1  0
  6  7  2  0
  7  8  1  0
  8  9  2  0
  9 10  1  0
 10 11  1  0
 10 12  2  0
 12 13  1  0
 13 14  1  0
 14 15  1  0
 15 16  1  0
 15 17  1  0
 17 18  2  0
 18 19  1  0
 19 20  1  0
 20 21  1  0
 20  2  1  0
 14  5  1  0
 19  5  1  0
 12  6  1  0
 21  7  1  0
  1 22  1  0
  1 23  1  0
  1 24  1  0
  2 25  1  0
  3 26  1  0
  3 27  1  0
  4 28  1  0
  4 29  1  0
  8 30  1  0
  9 31  1  0
 11 32  1  0
 14 33  1  6
 15 34  1  6
 16 35  1  0
 17 36  1  0
 18 37  1  0
 19 38  1  6
 20 39  1  6
 21 40  1  0
 21 41  1  0
M  CHG  1   2   1
M  END
>  <meeko>  (5) 
{"is_sidechain": false}

>  <vina_kcal_mol>  (5) 
-7.313

>  <rmsd_cristal>  (5) 
4.67

$$$$
pose 6
     RDKit          3D

 41 45  0  0  0  0  0  0  0  0999 V2000
  142.9840  135.1730  137.4140 C   0  0  0  0  0  0  0  0  0  0  0  0
  142.1760  134.1390  136.6790 N   0  0  0  0  0  0  0  0  0  0  0  0
  141.3800  133.2710  137.6160 C   0  0  0  0  0  0  0  0  0  0  0  0
  140.5050  132.2870  136.8370 C   0  0  0  0  0  0  0  0  0  0  0  0
  141.1880  131.7220  135.5630 C   0  0  2  0  0  0  0  0  0  0  0  0
  140.7170  132.5050  134.3750 C   0  0  0  0  0  0  0  0  0  0  0  0
  141.3370  133.5860  133.7720 C   0  0  0  0  0  0  0  0  0  0  0  0
  140.6940  134.1580  132.6710 C   0  0  0  0  0  0  0  0  0  0  0  0
  139.4790  133.6160  132.1920 C   0  0  0  0  0  0  0  0  0  0  0  0
  138.9290  132.4730  132.7760 C   0  0  0  0  0  0  0  0  0  0  0  0
  137.8120  131.8770  132.2840 O   0  0  0  0  0  0  0  0  0  0  0  0
  139.5810  131.9160  133.8530 C   0  0  0  0  0  0  0  0  0  0  0  0
  139.3090  130.7050  134.4570 O   0  0  0  0  0  0  0  0  0  0  0  0
  140.5780  130.3760  135.1200 C   0  0  1  0  0  0  0  0  0  0  0  0
  141.4790  129.5120  134.1780 C   0  0  1  0  0  0  0  0  0  0  0  0
  141.0260  129.5100  132.8270 O   0  0  0  0  0  0  0  0  0  0  0  0
  142.9210  129.9270  134.1090 C   0  0  0  0  0  0  0  0  0  0  0  0
  143.4760  130.9590  134.7620 C   0  0  0  0  0  0  0  0  0  0  0  0
  142.7070  131.8320  135.7100 C   0  0  1  0  0  0  0  0  0  0  0  0
  143.0350  133.3600  135.6300 C   0  0  1  0  0  0  0  0  0  0  0  0
  142.7120  133.9790  134.2390 C   0  0  0  0  0  0  0  0  0  0  0  0
  142.8689  135.0257  138.4980 H   0  0  0  0  0  0  0  0  0  0  0  0
  144.0447  135.0717  137.1408 H   0  0  0  0  0  0  0  0  0  0  0  0
  142.6293  136.1778  137.1408 H   0  0  0  0  0  0  0  0  0  0  0  0
  141.4650  134.6660  136.1470 H   0  0  0  0  0  0  0  0  0  0  0  0
  142.0713  132.7070  138.2594 H   0  0  0  0  0  0  0  0  0  0  0  0
  140.7285  133.9154  138.2245 H   0  0  0  0  0  0  0  0  0  0  0  0
  140.2539  131.4454  137.4993 H   0  0  0  0  0  0  0  0  0  0  0  0
  139.6133  132.8400  136.5066 H   0  0  0  0  0  0  0  0  0  0  0  0
  141.1354  135.0346  132.1743 H   0  0  0  0  0  0  0  0  0  0  0  0
  138.9616  134.0998  131.3504 H   0  0  0  0  0  0  0  0  0  0  0  0
  138.0670  131.1520  131.6890 H   0  0  0  0  0  0  0  0  0  0  0  0
  140.4527  129.7436  136.0112 H   0  0  0  0  0  0  0  0  0  0  0  0
  141.4000  128.5204  134.6475 H   0  0  0  0  0  0  0  0  0  0  0  0
  141.0620  130.4350  132.5120 H   0  0  0  0  0  0  0  0  0  0  0  0
  143.5824  129.3300  133.4639 H   0  0  0  0  0  0  0  0  0  0  0  0
  144.5416  131.1749  134.5953 H   0  0  0  0  0  0  0  0  0  0  0  0
  143.0433  131.4310  136.6775 H   0  0  0  0  0  0  0  0  0  0  0  0
  144.1144  133.4500  135.8218 H   0  0  0  0  0  0  0  0  0  0  0  0
  142.7655  135.0752  134.3134 H   0  0  0  0  0  0  0  0  0  0  0  0
  143.4466  133.6021  133.5121 H   0  0  0  0  0  0  0  0  0  0  0  0
  1  2  1  0
  2  3  1  0
  3  4  1  0
  5  4  1  1
  5  6  1  0
  6  7  2  0
  7  8  1  0
  8  9  2  0
  9 10  1  0
 10 11  1  0
 10 12  2  0
 12 13  1  0
 13 14  1  0
 14 15  1  0
 15 16  1  0
 15 17  1  0
 17 18  2  0
 18 19  1  0
 19 20  1  0
 20 21  1  0
 20  2  1  0
 14  5  1  0
 19  5  1  0
 12  6  1  0
 21  7  1  0
  1 22  1  0
  1 23  1  0
  1 24  1  0
  2 25  1  0
  3 26  1  0
  3 27  1  0
  4 28  1  0
  4 29  1  0
  8 30  1  0
  9 31  1  0
 11 32  1  0
 14 33  1  1
 15 34  1  1
 16 35  1  0
 17 36  1  0
 18 37  1  0
 19 38  1  1
 20 39  1  1
 21 40  1  0
 21 41  1  0
M  CHG  1   2   1
M  END
>  <meeko>  (6) 
{"is_sidechain": false}

>  <vina_kcal_mol>  (6) 
-7.313

>  <rmsd_cristal>  (6) 
8.16

$$$$
pose 7
     RDKit          3D

 41 45  0  0  0  0  0  0  0  0999 V2000
  139.1500  126.8240  138.3590 C   0  0  0  0  0  0  0  0  0  0  0  0
  139.6080  126.7360  136.9290 N   0  0  0  0  0  0  0  0  0  0  0  0
  140.6840  125.7010  136.7420 C   0  0  0  0  0  0  0  0  0  0  0  0
  141.0680  125.5740  135.2660 C   0  0  0  0  0  0  0  0  0  0  0  0
  141.0790  126.9280  134.5080 C   0  0  2  0  0  0  0  0  0  0  0  0
  139.7820  127.0820  133.7730 C   0  0  0  0  0  0  0  0  0  0  0  0
  138.6450  127.7550  134.1910 C   0  0  0  0  0  0  0  0  0  0  0  0
  137.5490  127.7520  133.3240 C   0  0  0  0  0  0  0  0  0  0  0  0
  137.6320  127.1120  132.0670 C   0  0  0  0  0  0  0  0  0  0  0  0
  138.8250  126.5170  131.6480 C   0  0  0  0  0  0  0  0  0  0  0  0
  138.9640  125.9720  130.4110 O   0  0  0  0  0  0  0  0  0  0  0  0
  139.8980  126.5370  132.5080 C   0  0  0  0  0  0  0  0  0  0  0  0
  141.1990  126.1690  132.2290 O   0  0  0  0  0  0  0  0  0  0  0  0
  141.9720  126.8870  133.2510 C   0  0  1  0  0  0  0  0  0  0  0  0
  142.4290  128.2820  132.7110 C   0  0  1  0  0  0  0  0  0  0  0  0
  141.7490  128.6640  131.5180 O   0  0  0  0  0  0  0  0  0  0  0  0
  142.2390  129.4320  133.6570 C   0  0  0  0  0  0  0  0  0  0  0  0
  141.7100  129.3610  134.8870 C   0  0  0  0  0  0  0  0  0  0  0  0
  141.2660  128.0690  135.5100 C   0  0  1  0  0  0  0  0  0  0  0  0
  139.9350  128.1430  136.3300 C   0  0  1  0  0  0  0  0  0  0  0  0
  138.7100  128.5560  135.4630 C   0  0  0  0  0  0  0  0  0  0  0  0
  140.0066  126.6594  139.0292 H   0  0  0  0  0  0  0  0  0  0  0  0
  138.7237  127.8205  138.5468 H   0  0  0  0  0  0  0  0  0  0  0  0
  138.3847  126.0565  138.5468 H   0  0  0  0  0  0  0  0  0  0  0  0
  138.8010  126.3690  136.4000 H   0  0  0  0  0  0  0  0  0  0  0  0
  141.5716  125.9954  137.3212 H   0  0  0  0  0  0  0  0  0  0  0  0
  140.3026  124.7301  137.0910 H   0  0  0  0  0  0  0  0  0  0  0  0
  142.0740  125.1332  135.2051 H   0  0  0  0  0  0  0  0  0  0  0  0
  140.3048  124.9427  134.7874 H   0  0  0  0  0  0  0  0  0  0  0  0
  136.6153  128.2513  133.6222 H   0  0  0  0  0  0  0  0  0  0  0  0
  136.7489  127.0818  131.4118 H   0  0  0  0  0  0  0  0  0  0  0  0
  139.7910  125.4630  130.3730 H   0  0  0  0  0  0  0  0  0  0  0  0
  142.9164  126.3879  133.5136 H   0  0  0  0  0  0  0  0  0  0  0  0
  143.5030  128.1115  132.5450 H   0  0  0  0  0  0  0  0  0  0  0  0
  141.5440  129.6170  131.5970 H   0  0  0  0  0  0  0  0  0  0  0  0
  142.5635  130.4238  133.3092 H   0  0  0  0  0  0  0  0  0  0  0  0
  141.5963  130.2900  135.4650 H   0  0  0  0  0  0  0  0  0  0  0  0
  142.1078  127.8676  136.1888 H   0  0  0  0  0  0  0  0  0  0  0  0
  140.0974  128.9032  137.1083 H   0  0  0  0  0  0  0  0  0  0  0  0
  137.7891  128.3868  136.0404 H   0  0  0  0  0  0  0  0  0  0  0  0
  138.8143  129.6187  135.1989 H   0  0  0  0  0  0  0  0  0  0  0  0
  1  2  1  0
  2  3  1  0
  3  4  1  0
  5  4  1  1
  5  6  1  0
  6  7  2  0
  7  8  1  0
  8  9  2  0
  9 10  1  0
 10 11  1  0
 10 12  2  0
 12 13  1  0
 13 14  1  0
 14 15  1  0
 15 16  1  0
 15 17  1  0
 17 18  2  0
 18 19  1  0
 19 20  1  0
 20 21  1  0
 20  2  1  0
 14  5  1  0
 19  5  1  0
 12  6  1  0
 21  7  1  0
  1 22  1  0
  1 23  1  0
  1 24  1  0
  2 25  1  0
  3 26  1  0
  3 27  1  0
  4 28  1  0
  4 29  1  0
  8 30  1  0
  9 31  1  0
 11 32  1  0
 14 33  1  1
 15 34  1  6
 16 35  1  0
 17 36  1  0
 18 37  1  0
 19 38  1  1
 20 39  1  1
 21 40  1  0
 21 41  1  0
M  CHG  1   2   1
M  END
>  <meeko>  (7) 
{"is_sidechain": false}

>  <vina_kcal_mol>  (7) 
-7.283

>  <rmsd_cristal>  (7) 
5.05

$$$$
pose 8
     RDKit          3D

 41 45  0  0  0  0  0  0  0  0999 V2000
  138.7460  130.0740  137.5210 C   0  0  0  0  0  0  0  0  0  0  0  0
  139.4320  131.1630  136.7410 N   0  0  0  0  0  0  0  0  0  0  0  0
  139.0690  132.5330  137.2450 C   0  0  0  0  0  0  0  0  0  0  0  0
  139.8460  133.6150  136.4900 C   0  0  0  0  0  0  0  0  0  0  0  0
  140.0300  133.3080  134.9800 C   0  0  2  0  0  0  0  0  0  0  0  0
  141.3880  132.7100  134.7700 C   0  0  0  0  0  0  0  0  0  0  0  0
  141.7220  131.3680  134.6990 C   0  0  0  0  0  0  0  0  0  0  0  0
  143.0700  131.0560  134.5030 C   0  0  0  0  0  0  0  0  0  0  0  0
  144.0280  132.0850  134.3530 C   0  0  0  0  0  0  0  0  0  0  0  0
  143.6370  133.4260  134.3470 C   0  0  0  0  0  0  0  0  0  0  0  0
  144.5200  134.4330  134.1170 O   0  0  0  0  0  0  0  0  0  0  0  0
  142.3050  133.7160  134.5310 C   0  0  0  0  0  0  0  0  0  0  0  0
  141.6910  134.9440  134.3870 O   0  0  0  0  0  0  0  0  0  0  0  0
  140.2870  134.5830  134.1510 C   0  0  1  0  0  0  0  0  0  0  0  0
  140.0050  134.4510  132.6180 C   0  0  1  0  0  0  0  0  0  0  0  0
  141.1970  134.3930  131.8400 O   0  0  0  0  0  0  0  0  0  0  0  0
  139.2110  133.2440  132.2110 C   0  0  0  0  0  0  0  0  0  0  0  0
  138.7500  132.2910  133.0350 C   0  0  0  0  0  0  0  0  0  0  0  0
  138.9400  132.3360  134.5230 C   0  0  1  0  0  0  0  0  0  0  0  0
  139.2770  130.9650  135.1980 C   0  0  1  0  0  0  0  0  0  0  0  0
  140.6140  130.3510  134.6900 C   0  0  0  0  0  0  0  0  0  0  0  0
  138.8654  130.2635  138.5980 H   0  0  0  0  0  0  0  0  0  0  0  0
  137.6757  130.0600  137.2676 H   0  0  0  0  0  0  0  0  0  0  0  0
  139.1955  129.1026  137.2676 H   0  0  0  0  0  0  0  0  0  0  0  0
  140.4370  131.0670  136.9530 H   0  0  0  0  0  0  0  0  0  0  0  0
  137.9908  132.6963  137.1003 H   0  0  0  0  0  0  0  0  0  0  0  0
  139.3264  132.5950  138.3127 H   0  0  0  0  0  0  0  0  0  0  0  0
  139.3020  134.5661  136.5878 H   0  0  0  0  0  0  0  0  0  0  0  0
  140.8510  133.6604  136.9349 H   0  0  0  0  0  0  0  0  0  0  0  0
  143.3877  130.0035  134.4652 H   0  0  0  0  0  0  0  0  0  0  0  0
  145.0913  131.8271  134.2399 H   0  0  0  0  0  0  0  0  0  0  0  0
  145.0000  134.2610  133.2900 H   0  0  0  0  0  0  0  0  0  0  0  0
  139.5780  135.3574  134.4791 H   0  0  0  0  0  0  0  0  0  0  0  0
  139.4203  135.3621  132.4230 H   0  0  0  0  0  0  0  0  0  0  0  0
  141.9450  134.3250  132.4660 H   0  0  0  0  0  0  0  0  0  0  0  0
  138.9868  133.1306  131.1401 H   0  0  0  0  0  0  0  0  0  0  0  0
  138.2082  131.4380  132.6003 H   0  0  0  0  0  0  0  0  0  0  0  0
  137.9445  132.6727  134.8480 H   0  0  0  0  0  0  0  0  0  0  0  0
  138.4492  130.2871  134.9425 H   0  0  0  0  0  0  0  0  0  0  0  0
  140.8934  129.5112  135.3432 H   0  0  0  0  0  0  0  0  0  0  0  0
  140.4668  130.0078  133.6553 H   0  0  0  0  0  0  0  0  0  0  0  0
  1  2  1  0
  2  3  1  0
  3  4  1  0
  5  4  1  1
  5  6  1  0
  6  7  2  0
  7  8  1  0
  8  9  2  0
  9 10  1  0
 10 11  1  0
 10 12  2  0
 12 13  1  0
 13 14  1  0
 14 15  1  0
 15 16  1  0
 15 17  1  0
 17 18  2  0
 18 19  1  0
 19 20  1  0
 20 21  1  0
 20  2  1  0
 14  5  1  0
 19  5  1  0
 12  6  1  0
 21  7  1  0
  1 22  1  0
  1 23  1  0
  1 24  1  0
  2 25  1  0
  3 26  1  0
  3 27  1  0
  4 28  1  0
  4 29  1  0
  8 30  1  0
  9 31  1  0
 11 32  1  0
 14 33  1  1
 15 34  1  6
 16 35  1  0
 17 36  1  0
 18 37  1  0
 19 38  1  1
 20 39  1  1
 21 40  1  0
 21 41  1  0
M  CHG  1   2   1
M  END
>  <meeko>  (8) 
{"is_sidechain": false}

>  <vina_kcal_mol>  (8) 
-7.254

>  <rmsd_cristal>  (8) 
8.56

$$$$
pose 9
     RDKit          3D

 41 45  0  0  0  0  0  0  0  0999 V2000
  142.1210  124.2390  130.4200 C   0  0  0  0  0  0  0  0  0  0  0  0
  141.0290  124.9100  131.2060 N   0  0  0  0  0  0  0  0  0  0  0  0
  139.9260  125.4220  130.3200 C   0  0  0  0  0  0  0  0  0  0  0  0
  138.7910  126.0220  131.1520 C   0  0  0  0  0  0  0  0  0  0  0  0
  139.2820  126.8040  132.4000 C   0  0  2  0  0  0  0  0  0  0  0  0
  139.1890  125.9100  133.5990 C   0  0  0  0  0  0  0  0  0  0  0  0
  140.1910  125.1330  134.1570 C   0  0  0  0  0  0  0  0  0  0  0  0
  139.8560  124.3720  135.2800 C   0  0  0  0  0  0  0  0  0  0  0  0
  138.5530  124.4340  135.8240 C   0  0  0  0  0  0  0  0  0  0  0  0
  137.5950  125.2950  135.2810 C   0  0  0  0  0  0  0  0  0  0  0  0
  136.3630  125.4440  135.8350 O   0  0  0  0  0  0  0  0  0  0  0  0
  137.9440  126.0450  134.1830 C   0  0  0  0  0  0  0  0  0  0  0  0
  137.2190  127.0700  133.6080 O   0  0  0  0  0  0  0  0  0  0  0  0
  138.2450  127.8360  132.8890 C   0  0  1  0  0  0  0  0  0  0  0  0
  138.8140  128.9750  133.7980 C   0  0  1  0  0  0  0  0  0  0  0  0
  138.4590  128.8180  135.1690 O   0  0  0  0  0  0  0  0  0  0  0  0
  140.3090  129.1160  133.7930 C   0  0  0  0  0  0  0  0  0  0  0  0
  141.1690  128.3550  133.1000 C   0  0  0  0  0  0  0  0  0  0  0  0
  140.7270  127.2560  132.1790 C   0  0  1  0  0  0  0  0  0  0  0  0
  141.5950  125.9550  132.2230 C   0  0  1  0  0  0  0  0  0  0  0  0
  141.5890  125.2680  133.6190 C   0  0  0  0  0  0  0  0  0  0  0  0
  142.8492  123.7915  131.1124 H   0  0  0  0  0  0  0  0  0  0  0  0
  141.6861  123.4521  129.7863 H   0  0  0  0  0  0  0  0  0  0  0  0
  142.6266  124.9825  129.7863 H   0  0  0  0  0  0  0  0  0  0  0  0
  140.5870  124.1630  131.7650 H   0  0  0  0  0  0  0  0  0  0  0  0
  140.3309  126.1964  129.6519 H   0  0  0  0  0  0  0  0  0  0  0  0
  139.5260  124.5806  129.7352 H   0  0  0  0  0  0  0  0  0  0  0  0
  138.2180  126.7104  130.5134 H   0  0  0  0  0  0  0  0  0  0  0  0
  138.1798  125.1832  131.5166 H   0  0  0  0  0  0  0  0  0  0  0  0
  140.6113  123.7204  135.7437 H   0  0  0  0  0  0  0  0  0  0  0  0
  138.2903  123.7987  136.6828 H   0  0  0  0  0  0  0  0  0  0  0  0
  136.3300  126.2780  136.3320 H   0  0  0  0  0  0  0  0  0  0  0  0
  137.8530  128.3736  132.0131 H   0  0  0  0  0  0  0  0  0  0  0  0
  138.3556  129.8667  133.3455 H   0  0  0  0  0  0  0  0  0  0  0  0
  138.1940  127.8850  135.2910 H   0  0  0  0  0  0  0  0  0  0  0  0
  140.7378  129.9162  134.4142 H   0  0  0  0  0  0  0  0  0  0  0  0
  142.2467  128.5451  133.2119 H   0  0  0  0  0  0  0  0  0  0  0  0
  140.8452  127.7464  131.2015 H   0  0  0  0  0  0  0  0  0  0  0  0
  142.6217  126.2652  131.9788 H   0  0  0  0  0  0  0  0  0  0  0  0
  142.0357  124.2669  133.5274 H   0  0  0  0  0  0  0  0  0  0  0  0
  142.1695  125.8917  134.3148 H   0  0  0  0  0  0  0  0  0  0  0  0
  1  2  1  0
  2  3  1  0
  3  4  1  0
  5  4  1  6
  5  6  1  0
  6  7  2  0
  7  8  1  0
  8  9  2  0
  9 10  1  0
 10 11  1  0
 10 12  2  0
 12 13  1  0
 13 14  1  0
 14 15  1  0
 15 16  1  0
 15 17  1  0
 17 18  2  0
 18 19  1  0
 19 20  1  0
 20 21  1  0
 20  2  1  0
 14  5  1  0
 19  5  1  0
 12  6  1  0
 21  7  1  0
  1 22  1  0
  1 23  1  0
  1 24  1  0
  2 25  1  0
  3 26  1  0
  3 27  1  0
  4 28  1  0
  4 29  1  0
  8 30  1  0
  9 31  1  0
 11 32  1  0
 14 33  1  6
 15 34  1  6
 16 35  1  0
 17 36  1  0
 18 37  1  0
 19 38  1  6
 20 39  1  6
 21 40  1  0
 21 41  1  0
M  CHG  1   2   1
M  END
>  <meeko>  (9) 
{"is_sidechain": false}

>  <vina_kcal_mol>  (9) 
-7.157

>  <rmsd_cristal>  (9) 
2.42

$$$$
