morfina (8EF6/MOI)
     RDKit          3D

 41 45  0  0  0  0  0  0  0  0999 V2000
  138.1430  123.0590  135.0800 C   0  0  0  0  0  0  0  0  0  0  0  0
  139.5780  124.0890  133.2110 C   0  0  0  0  0  0  0  0  0  0  0  0
  138.6800  124.1670  134.4200 C   0  0  0  0  0  0  0  0  0  0  0  0
  138.3530  125.4170  134.9160 C   0  0  0  0  0  0  0  0  0  0  0  0
  138.8150  126.7430  134.3880 C   0  0  1  0  0  0  0  0  0  0  0  0
  140.2520  126.5740  133.8730 C   0  0  1  0  0  0  0  0  0  0  0  0
  137.9090  127.2890  133.2550 C   0  0  0  0  0  0  0  0  0  0  0  0
  138.0670  126.5430  131.9130 C   0  0  0  0  0  0  0  0  0  0  0  0
  139.5590  125.4040  130.3590 C   0  0  0  0  0  0  0  0  0  0  0  0
  137.3170  123.2390  136.2100 C   0  0  0  0  0  0  0  0  0  0  0  0
  137.0180  124.5220  136.6930 C   0  0  0  0  0  0  0  0  0  0  0  0
  137.5580  125.5980  136.0220 C   0  0  0  0  0  0  0  0  0  0  0  0
  138.5920  127.5400  135.6890 C   0  0  2  0  0  0  0  0  0  0  0  0
  139.8290  127.6260  136.6290 C   0  0  2  0  0  0  0  0  0  0  0  0
  141.0700  126.8570  136.2290 C   0  0  0  0  0  0  0  0  0  0  0  0
  141.2580  126.3710  134.9850 C   0  0  0  0  0  0  0  0  0  0  0  0
  140.1670  125.4760  132.7530 C   0  0  2  0  0  0  0  0  0  0  0  0
  139.4480  126.1200  131.6250 N   0  0  0  0  0  0  0  0  0  0  0  0
  136.2230  124.6870  137.7790 O   0  0  0  0  0  0  0  0  0  0  0  0
  139.4500  127.2900  137.9630 O   0  0  0  0  0  0  0  0  0  0  0  0
  137.4100  126.9260  136.3220 O   0  0  0  0  0  0  0  0  0  0  0  0
  138.3645  122.0441  134.7181 H   0  0  0  0  0  0  0  0  0  0  0  0
  140.4177  123.4190  133.4478 H   0  0  0  0  0  0  0  0  0  0  0  0
  138.9584  123.7193  132.3807 H   0  0  0  0  0  0  0  0  0  0  0  0
  140.6631  127.4888  133.4212 H   0  0  0  0  0  0  0  0  0  0  0  0
  136.8610  127.2028  133.5778 H   0  0  0  0  0  0  0  0  0  0  0  0
  138.2123  128.3315  133.0783 H   0  0  0  0  0  0  0  0  0  0  0  0
  137.4283  125.6477  131.9370 H   0  0  0  0  0  0  0  0  0  0  0  0
  137.7766  127.2475  131.1197 H   0  0  0  0  0  0  0  0  0  0  0  0
  139.7248  124.3345  130.5559 H   0  0  0  0  0  0  0  0  0  0  0  0
  138.6304  125.5312  129.7832 H   0  0  0  0  0  0  0  0  0  0  0  0
  140.4055  125.8064  129.7832 H   0  0  0  0  0  0  0  0  0  0  0  0
  136.9004  122.3584  136.7209 H   0  0  0  0  0  0  0  0  0  0  0  0
  138.4248  128.6027  135.4595 H   0  0  0  0  0  0  0  0  0  0  0  0
  140.1455  128.6759  136.5416 H   0  0  0  0  0  0  0  0  0  0  0  0
  141.8512  126.6875  136.9846 H   0  0  0  0  0  0  0  0  0  0  0  0
  142.1771  125.8059  134.7707 H   0  0  0  0  0  0  0  0  0  0  0  0
  141.1752  125.1599  132.4470 H   0  0  0  0  0  0  0  0  0  0  0  0
  139.9690  127.0003  131.5043 H   0  0  0  0  0  0  0  0  0  0  0  0
  136.0196  125.5977  138.1098 H   0  0  0  0  0  0  0  0  0  0  0  0
  140.0153  127.7912  138.6028 H   0  0  0  0  0  0  0  0  0  0  0  0
  3  2  1  0
  3  1  1  0
  4  3  2  0
  5  4  1  0
  6  5  1  0
  5  7  1  6
  8  7  1  0
 10  1  2  0
 11 10  1  0
 12 11  2  0
 12  4  1  0
 13  5  1  0
 14 13  1  0
 15 14  1  0
 16 15  2  0
 16  6  1  0
 17  2  1  0
 17  6  1  0
 18  9  1  0
 18 17  1  0
 18  8  1  0
 19 11  1  0
 20 14  1  0
 21 13  1  0
 21 12  1  0
  1 22  1  0
  2 23  1  0
  2 24  1  0
  6 25  1  6
  7 26  1  0
  7 27  1  0
  8 28  1  0
  8 29  1  0
  9 30  1  0
  9 31  1  0
  9 32  1  0
 10 33  1  0
 13 34  1  6
 14 35  1  1
 15 36  1  0
 16 37  1  0
 17 38  1  6
 18 39  1  0
 19 40  1  0
 20 41  1  0
M  CHG  1  18   1
M  END
$$$$
