pose 1
     RDKit          3D

 45 48  0  0  0  0  0  0  0  0999 V2000
  -34.5420  -15.2390    0.6710 F   0  0  0  0  0  0  0  0  0  0  0  0
  -34.3230  -16.5540    0.7830 C   0  0  0  0  0  0  0  0  0  0  0  0
  -34.7790  -17.2320    1.9040 C   0  0  0  0  0  0  0  0  0  0  0  0
  -34.5540  -18.6080    2.0280 C   0  0  0  0  0  0  0  0  0  0  0  0
  -33.8540  -19.3170    1.0400 C   0  0  0  0  0  0  0  0  0  0  0  0
  -33.5700  -20.8200    1.1000 C   0  0  2  0  0  0  0  0  0  0  0  0
  -33.6880  -21.5880   -0.2410 C   0  0  0  0  0  0  0  0  0  0  0  0
  -35.1180  -21.9180   -0.6530 C   0  0  0  0  0  0  0  0  0  0  0  0
  -35.8430  -22.5700    0.4690 N   0  0  0  0  0  0  0  0  0  0  0  0
  -35.8500  -21.7640    1.7250 C   0  0  0  0  0  0  0  0  0  0  0  0
  -34.4170  -21.5190    2.2040 C   0  0  1  0  0  0  0  0  0  0  0  0
  -33.7250  -22.8060    2.6980 C   0  0  0  0  0  0  0  0  0  0  0  0
  -32.3630  -22.7710    2.2780 O   0  0  0  0  0  0  0  0  0  0  0  0
  -31.4330  -22.4040    3.2140 C   0  0  0  0  0  0  0  0  0  0  0  0
  -31.6030  -23.0170    4.4730 C   0  0  0  0  0  0  0  0  0  0  0  0
  -30.7260  -22.7510    5.5300 C   0  0  0  0  0  0  0  0  0  0  0  0
  -29.6960  -21.8690    5.2960 C   0  0  0  0  0  0  0  0  0  0  0  0
  -29.5290  -21.2660    4.0730 C   0  0  0  0  0  0  0  0  0  0  0  0
  -30.3790  -21.5090    3.0120 C   0  0  0  0  0  0  0  0  0  0  0  0
  -28.4550  -20.4310    4.0490 O   0  0  0  0  0  0  0  0  0  0  0  0
  -27.9790  -20.5600    5.4080 C   0  0  0  0  0  0  0  0  0  0  0  0
  -28.7510  -21.4900    6.1950 O   0  0  0  0  0  0  0  0  0  0  0  0
  -33.4330  -18.6020   -0.1020 C   0  0  0  0  0  0  0  0  0  0  0  0
  -33.6570  -17.2290   -0.2260 C   0  0  0  0  0  0  0  0  0  0  0  0
  -35.3170  -16.6888    2.6949 H   0  0  0  0  0  0  0  0  0  0  0  0
  -34.9315  -19.1413    2.9129 H   0  0  0  0  0  0  0  0  0  0  0  0
  -32.5021  -20.8696    1.3591 H   0  0  0  0  0  0  0  0  0  0  0  0
  -33.2356  -20.9715   -1.0317 H   0  0  0  0  0  0  0  0  0  0  0  0
  -33.1720  -22.5491   -0.0992 H   0  0  0  0  0  0  0  0  0  0  0  0
  -35.6388  -20.9896   -0.9302 H   0  0  0  0  0  0  0  0  0  0  0  0
  -35.0925  -22.6073   -1.5099 H   0  0  0  0  0  0  0  0  0  0  0  0
  -36.8210  -22.7310    0.1850 H   0  0  0  0  0  0  0  0  0  0  0  0
  -35.4690  -23.5120    0.6570 H   0  0  0  0  0  0  0  0  0  0  0  0
  -36.3394  -20.7976    1.5338 H   0  0  0  0  0  0  0  0  0  0  0  0
  -36.3989  -22.3157    2.5024 H   0  0  0  0  0  0  0  0  0  0  0  0
  -34.4866  -20.8452    3.0707 H   0  0  0  0  0  0  0  0  0  0  0  0
  -33.7746  -22.8572    3.7957 H   0  0  0  0  0  0  0  0  0  0  0  0
  -34.2278  -23.6909    2.2807 H   0  0  0  0  0  0  0  0  0  0  0  0
  -32.4388  -23.7156    4.6262 H   0  0  0  0  0  0  0  0  0  0  0  0
  -30.8550  -23.2293    6.5121 H   0  0  0  0  0  0  0  0  0  0  0  0
  -30.2313  -21.0146    2.0405 H   0  0  0  0  0  0  0  0  0  0  0  0
  -26.9354  -20.9067    5.3814 H   0  0  0  0  0  0  0  0  0  0  0  0
  -28.0745  -19.5723    5.8827 H   0  0  0  0  0  0  0  0  0  0  0  0
  -32.9171  -19.1381   -0.9122 H   0  0  0  0  0  0  0  0  0  0  0  0
  -33.3072  -16.6884   -1.1178 H   0  0  0  0  0  0  0  0  0  0  0  0
  1  2  1  0
  2  3  1  0
  3  4  2  0
  4  5  1  0
  5  6  1  0
  6  7  1  0
  7  8  1  0
  8  9  1  0
  9 10  1  0
 10 11  1  0
 11 12  1  0
 12 13  1  0
 13 14  1  0
 14 15  1  0
 15 16  2  0
 16 17  1  0
 17 18  2  0
 18 19  1  0
 18 20  1  0
 20 21  1  0
 21 22  1  0
  5 23  2  0
 23 24  1  0
 24  2  2  0
 11  6  1  0
 19 14  2  0
 22 17  1  0
  3 25  1  0
  4 26  1  0
  6 27  1  1
  7 28  1  0
  7 29  1  0
  8 30  1  0
  8 31  1  0
  9 32  1  0
  9 33  1  0
 10 34  1  0
 10 35  1  0
 11 36  1  1
 12 37  1  0
 12 38  1  0
 15 39  1  0
 16 40  1  0
 19 41  1  0
 21 42  1  0
 21 43  1  0
 23 44  1  0
 24 45  1  0
M  CHG  1   9   1
M  END
>  <meeko>  (1) 
{"is_sidechain": false}

>  <vina_kcal_mol>  (1) 
-10.106

>  <rmsd_cristal>  (1) 
1.58

$$$$
pose 2
     RDKit          3D

 45 48  0  0  0  0  0  0  0  0999 V2000
  -37.4020  -16.5430    3.1990 F   0  0  0  0  0  0  0  0  0  0  0  0
  -36.3920  -17.3110    2.7770 C   0  0  0  0  0  0  0  0  0  0  0  0
  -35.5550  -16.8530    1.7700 C   0  0  0  0  0  0  0  0  0  0  0  0
  -34.4960  -17.6510    1.3230 C   0  0  0  0  0  0  0  0  0  0  0  0
  -34.2730  -18.9260    1.8680 C   0  0  0  0  0  0  0  0  0  0  0  0
  -33.1370  -19.8570    1.4370 C   0  0  2  0  0  0  0  0  0  0  0  0
  -32.2740  -19.3700    0.2470 C   0  0  0  0  0  0  0  0  0  0  0  0
  -32.9110  -19.5850   -1.1210 C   0  0  0  0  0  0  0  0  0  0  0  0
  -33.3750  -20.9910   -1.2610 N   0  0  0  0  0  0  0  0  0  0  0  0
  -34.3200  -21.4180   -0.1880 C   0  0  0  0  0  0  0  0  0  0  0  0
  -33.6490  -21.3050    1.1830 C   0  0  1  0  0  0  0  0  0  0  0  0
  -32.5160  -22.3330    1.3790 C   0  0  0  0  0  0  0  0  0  0  0  0
  -32.5350  -22.7660    2.7370 O   0  0  0  0  0  0  0  0  0  0  0  0
  -31.4790  -22.3910    3.5240 C   0  0  0  0  0  0  0  0  0  0  0  0
  -31.4950  -22.9470    4.8210 C   0  0  0  0  0  0  0  0  0  0  0  0
  -30.4780  -22.6660    5.7390 C   0  0  0  0  0  0  0  0  0  0  0  0
  -29.4660  -21.8270    5.3320 C   0  0  0  0  0  0  0  0  0  0  0  0
  -29.4480  -21.2810    4.0720 C   0  0  0  0  0  0  0  0  0  0  0  0
  -30.4380  -21.5400    3.1440 C   0  0  0  0  0  0  0  0  0  0  0  0
  -28.3660  -20.4820    3.8680 O   0  0  0  0  0  0  0  0  0  0  0  0
  -27.7160  -20.5700    5.1560 C   0  0  0  0  0  0  0  0  0  0  0  0
  -28.4000  -21.4420    6.0800 O   0  0  0  0  0  0  0  0  0  0  0  0
  -35.1240  -19.3470    2.9130 C   0  0  0  0  0  0  0  0  0  0  0  0
  -36.1810  -18.5500    3.3580 C   0  0  0  0  0  0  0  0  0  0  0  0
  -35.7238  -15.8623    1.3228 H   0  0  0  0  0  0  0  0  0  0  0  0
  -33.8288  -17.2744    0.5337 H   0  0  0  0  0  0  0  0  0  0  0  0
  -32.4550  -19.8471    2.3000 H   0  0  0  0  0  0  0  0  0  0  0  0
  -32.0878  -18.2934    0.3747 H   0  0  0  0  0  0  0  0  0  0  0  0
  -31.3514  -19.9689    0.2618 H   0  0  0  0  0  0  0  0  0  0  0  0
  -33.7701  -18.9070   -1.2315 H   0  0  0  0  0  0  0  0  0  0  0  0
  -32.1628  -19.3767   -1.9000 H   0  0  0  0  0  0  0  0  0  0  0  0
  -33.8510  -21.0960   -2.1690 H   0  0  0  0  0  0  0  0  0  0  0  0
  -32.5780  -21.6430   -1.3090 H   0  0  0  0  0  0  0  0  0  0  0  0
  -35.2109  -20.7732   -0.2107 H   0  0  0  0  0  0  0  0  0  0  0  0
  -34.6097  -22.4650   -0.3606 H   0  0  0  0  0  0  0  0  0  0  0  0
  -34.4209  -21.5394    1.9308 H   0  0  0  0  0  0  0  0  0  0  0  0
  -32.6747  -23.1932    0.7120 H   0  0  0  0  0  0  0  0  0  0  0  0
  -31.5442  -21.8763    1.1402 H   0  0  0  0  0  0  0  0  0  0  0  0
  -32.3206  -23.6120    5.1146 H   0  0  0  0  0  0  0  0  0  0  0  0
  -30.4867  -23.0999    6.7498 H   0  0  0  0  0  0  0  0  0  0  0  0
  -30.4078  -21.0915    2.1400 H   0  0  0  0  0  0  0  0  0  0  0  0
  -26.6948  -20.9507    5.0069 H   0  0  0  0  0  0  0  0  0  0  0  0
  -27.7212  -19.5610    5.5942 H   0  0  0  0  0  0  0  0  0  0  0  0
  -34.9507  -20.3243    3.3871 H   0  0  0  0  0  0  0  0  0  0  0  0
  -36.8408  -18.9038    4.1639 H   0  0  0  0  0  0  0  0  0  0  0  0
  1  2  1  0
  2  3  1  0
  3  4  2  0
  4  5  1  0
  5  6  1  0
  6  7  1  0
  7  8  1  0
  8  9  1  0
  9 10  1  0
 10 11  1  0
 11 12  1  0
 12 13  1  0
 13 14  1  0
 14 15  1  0
 15 16  2  0
 16 17  1  0
 17 18  2  0
 18 19  1  0
 18 20  1  0
 20 21  1  0
 21 22  1  0
  5 23  2  0
 23 24  1  0
 24  2  2  0
 11  6  1  0
 19 14  2  0
 22 17  1  0
  3 25  1  0
  4 26  1  0
  6 27  1  1
  7 28  1  0
  7 29  1  0
  8 30  1  0
  8 31  1  0
  9 32  1  0
  9 33  1  0
 10 34  1  0
 10 35  1  0
 11 36  1  1
 12 37  1  0
 12 38  1  0
 15 39  1  0
 16 40  1  0
 19 41  1  0
 21 42  1  0
 21 43  1  0
 23 44  1  0
 24 45  1  0
M  CHG  1   9   1
M  END
>  <meeko>  (2) 
{"is_sidechain": false}

>  <vina_kcal_mol>  (2) 
-9.884

>  <rmsd_cristal>  (2) 
2.76

$$$$
pose 3
     RDKit          3D

 45 48  0  0  0  0  0  0  0  0999 V2000
  -37.5110  -16.4980    3.0280 F   0  0  0  0  0  0  0  0  0  0  0  0
  -36.4810  -17.2840    2.6960 C   0  0  0  0  0  0  0  0  0  0  0  0
  -35.6110  -16.8860    1.6920 C   0  0  0  0  0  0  0  0  0  0  0  0
  -34.5300  -17.7030    1.3380 C   0  0  0  0  0  0  0  0  0  0  0  0
  -34.3210  -18.9370    1.9740 C   0  0  0  0  0  0  0  0  0  0  0  0
  -33.1640  -19.8850    1.6480 C   0  0  2  0  0  0  0  0  0  0  0  0
  -32.3060  -19.5110    0.4130 C   0  0  0  0  0  0  0  0  0  0  0  0
  -32.9340  -19.8860   -0.9250 C   0  0  0  0  0  0  0  0  0  0  0  0
  -33.3680  -21.3090   -0.9130 N   0  0  0  0  0  0  0  0  0  0  0  0
  -34.3070  -21.6370    0.1990 C   0  0  0  0  0  0  0  0  0  0  0  0
  -33.6440  -21.3620    1.5510 C   0  0  1  0  0  0  0  0  0  0  0  0
  -32.4900  -22.3390    1.8580 C   0  0  0  0  0  0  0  0  0  0  0  0
  -32.4320  -22.5330    3.2690 O   0  0  0  0  0  0  0  0  0  0  0  0
  -31.2440  -22.2470    3.8880 C   0  0  0  0  0  0  0  0  0  0  0  0
  -30.4430  -21.3090    3.2030 C   0  0  0  0  0  0  0  0  0  0  0  0
  -29.2050  -20.9070    3.7130 C   0  0  0  0  0  0  0  0  0  0  0  0
  -28.7970  -21.4620    4.9060 C   0  0  0  0  0  0  0  0  0  0  0  0
  -29.5720  -22.3780    5.5740 C   0  0  0  0  0  0  0  0  0  0  0  0
  -30.7990  -22.7940    5.0940 C   0  0  0  0  0  0  0  0  0  0  0  0
  -28.9920  -22.8030    6.7290 O   0  0  0  0  0  0  0  0  0  0  0  0
  -27.7490  -22.0650    6.6970 C   0  0  0  0  0  0  0  0  0  0  0  0
  -27.6340  -21.1950    5.5530 O   0  0  0  0  0  0  0  0  0  0  0  0
  -35.2070  -19.2950    3.0120 C   0  0  0  0  0  0  0  0  0  0  0  0
  -36.2850  -18.4800    3.3650 C   0  0  0  0  0  0  0  0  0  0  0  0
  -35.7700  -15.9288    1.1738 H   0  0  0  0  0  0  0  0  0  0  0  0
  -33.8355  -17.3735    0.5512 H   0  0  0  0  0  0  0  0  0  0  0  0
  -32.4861  -19.7674    2.5063 H   0  0  0  0  0  0  0  0  0  0  0  0
  -32.1425  -18.4233    0.4239 H   0  0  0  0  0  0  0  0  0  0  0  0
  -31.3711  -20.0850    0.4938 H   0  0  0  0  0  0  0  0  0  0  0  0
  -33.8068  -19.2423   -1.1089 H   0  0  0  0  0  0  0  0  0  0  0  0
  -32.1877  -19.7470   -1.7211 H   0  0  0  0  0  0  0  0  0  0  0  0
  -33.8390  -21.5210   -1.8050 H   0  0  0  0  0  0  0  0  0  0  0  0
  -32.5570  -21.9450   -0.8890 H   0  0  0  0  0  0  0  0  0  0  0  0
  -35.2112  -21.0176    0.1053 H   0  0  0  0  0  0  0  0  0  0  0  0
  -34.5733  -22.7027    0.1406 H   0  0  0  0  0  0  0  0  0  0  0  0
  -34.4135  -21.5303    2.3188 H   0  0  0  0  0  0  0  0  0  0  0  0
  -32.6739  -23.3011    1.3574 H   0  0  0  0  0  0  0  0  0  0  0  0
  -31.5375  -21.9278    1.4922 H   0  0  0  0  0  0  0  0  0  0  0  0
  -30.7987  -20.8869    2.2515 H   0  0  0  0  0  0  0  0  0  0  0  0
  -28.5798  -20.1746    3.1813 H   0  0  0  0  0  0  0  0  0  0  0  0
  -31.4046  -23.5305    5.6425 H   0  0  0  0  0  0  0  0  0  0  0  0
  -27.6818  -21.4538    7.6091 H   0  0  0  0  0  0  0  0  0  0  0  0
  -26.9338  -22.8006    6.6314 H   0  0  0  0  0  0  0  0  0  0  0  0
  -35.0451  -20.2375    3.5557 H   0  0  0  0  0  0  0  0  0  0  0  0
  -36.9722  -18.7858    4.1676 H   0  0  0  0  0  0  0  0  0  0  0  0
  1  2  1  0
  2  3  1  0
  3  4  2  0
  4  5  1  0
  5  6  1  0
  6  7  1  0
  7  8  1  0
  8  9  1  0
  9 10  1  0
 10 11  1  0
 11 12  1  0
 12 13  1  0
 13 14  1  0
 14 15  1  0
 15 16  2  0
 16 17  1  0
 17 18  2  0
 18 19  1  0
 18 20  1  0
 20 21  1  0
 21 22  1  0
  5 23  2  0
 23 24  1  0
 24  2  2  0
 11  6  1  0
 19 14  2  0
 22 17  1  0
  3 25  1  0
  4 26  1  0
  6 27  1  1
  7 28  1  0
  7 29  1  0
  8 30  1  0
  8 31  1  0
  9 32  1  0
  9 33  1  0
 10 34  1  0
 10 35  1  0
 11 36  1  1
 12 37  1  0
 12 38  1  0
 15 39  1  0
 16 40  1  0
 19 41  1  0
 21 42  1  0
 21 43  1  0
 23 44  1  0
 24 45  1  0
M  CHG  1   9   1
M  END
>  <meeko>  (3) 
{"is_sidechain": false}

>  <vina_kcal_mol>  (3) 
-9.63

>  <rmsd_cristal>  (3) 
3.09

$$$$
pose 4
     RDKit          3D

 45 48  0  0  0  0  0  0  0  0999 V2000
  -34.3730  -16.8860   -2.3230 F   0  0  0  0  0  0  0  0  0  0  0  0
  -34.1100  -18.0190   -1.6620 C   0  0  0  0  0  0  0  0  0  0  0  0
  -35.0580  -19.0310   -1.6300 C   0  0  0  0  0  0  0  0  0  0  0  0
  -34.7900  -20.2190   -0.9400 C   0  0  0  0  0  0  0  0  0  0  0  0
  -33.5770  -20.4000   -0.2590 C   0  0  0  0  0  0  0  0  0  0  0  0
  -33.2070  -21.6680    0.5150 C   0  0  2  0  0  0  0  0  0  0  0  0
  -34.2470  -22.8150    0.4760 C   0  0  0  0  0  0  0  0  0  0  0  0
  -35.4230  -22.6300    1.4280 C   0  0  0  0  0  0  0  0  0  0  0  0
  -34.9370  -22.3160    2.7980 N   0  0  0  0  0  0  0  0  0  0  0  0
  -34.0430  -21.1230    2.8560 C   0  0  0  0  0  0  0  0  0  0  0  0
  -32.8050  -21.3460    1.9840 C   0  0  1  0  0  0  0  0  0  0  0  0
  -31.8650  -22.4310    2.5490 C   0  0  0  0  0  0  0  0  0  0  0  0
  -31.9230  -22.3770    3.9730 O   0  0  0  0  0  0  0  0  0  0  0  0
  -30.7420  -22.1790    4.6370 C   0  0  0  0  0  0  0  0  0  0  0  0
  -29.8070  -21.3910    3.9360 C   0  0  0  0  0  0  0  0  0  0  0  0
  -28.5570  -21.0920    4.4870 C   0  0  0  0  0  0  0  0  0  0  0  0
  -28.2740  -21.5970    5.7360 C   0  0  0  0  0  0  0  0  0  0  0  0
  -29.1810  -22.3690    6.4210 C   0  0  0  0  0  0  0  0  0  0  0  0
  -30.4230  -22.6810    5.9010 C   0  0  0  0  0  0  0  0  0  0  0  0
  -28.7110  -22.7680    7.6330 O   0  0  0  0  0  0  0  0  0  0  0  0
  -27.3920  -22.1780    7.6220 C   0  0  0  0  0  0  0  0  0  0  0  0
  -27.1210  -21.4140    6.4290 O   0  0  0  0  0  0  0  0  0  0  0  0
  -32.6220  -19.3630   -0.3380 C   0  0  0  0  0  0  0  0  0  0  0  0
  -32.8900  -18.1770   -1.0260 C   0  0  0  0  0  0  0  0  0  0  0  0
  -36.0202  -18.9000   -2.1467 H   0  0  0  0  0  0  0  0  0  0  0  0
  -35.5414  -21.0223   -0.9316 H   0  0  0  0  0  0  0  0  0  0  0  0
  -32.3373  -22.0591   -0.0333 H   0  0  0  0  0  0  0  0  0  0  0  0
  -34.6414  -22.8874   -0.5483 H   0  0  0  0  0  0  0  0  0  0  0  0
  -33.7221  -23.7264    0.7982 H   0  0  0  0  0  0  0  0  0  0  0  0
  -36.0534  -21.8033    1.0688 H   0  0  0  0  0  0  0  0  0  0  0  0
  -36.0052  -23.5627    1.4611 H   0  0  0  0  0  0  0  0  0  0  0  0
  -35.7490  -22.1400    3.4070 H   0  0  0  0  0  0  0  0  0  0  0  0
  -34.4660  -23.1300    3.2210 H   0  0  0  0  0  0  0  0  0  0  0  0
  -34.5901  -20.2411    2.4912 H   0  0  0  0  0  0  0  0  0  0  0  0
  -33.7245  -20.9640    3.8968 H   0  0  0  0  0  0  0  0  0  0  0  0
  -32.2399  -20.4023    1.9935 H   0  0  0  0  0  0  0  0  0  0  0  0
  -32.1900  -23.4226    2.2009 H   0  0  0  0  0  0  0  0  0  0  0  0
  -30.8349  -22.2564    2.2049 H   0  0  0  0  0  0  0  0  0  0  0  0
  -30.0649  -21.0048    2.9388 H   0  0  0  0  0  0  0  0  0  0  0  0
  -27.8265  -20.4758    3.9423 H   0  0  0  0  0  0  0  0  0  0  0  0
  -31.1354  -23.3029    6.4629 H   0  0  0  0  0  0  0  0  0  0  0  0
  -27.2999  -21.5116    8.4923 H   0  0  0  0  0  0  0  0  0  0  0  0
  -26.6648  -23.0027    7.6541 H   0  0  0  0  0  0  0  0  0  0  0  0
  -31.6460  -19.4917    0.1527 H   0  0  0  0  0  0  0  0  0  0  0  0
  -32.1380  -17.3751   -1.0622 H   0  0  0  0  0  0  0  0  0  0  0  0
  1  2  1  0
  2  3  1  0
  3  4  2  0
  4  5  1  0
  5  6  1  0
  6  7  1  0
  7  8  1  0
  8  9  1  0
  9 10  1  0
 10 11  1  0
 11 12  1  0
 12 13  1  0
 13 14  1  0
 14 15  1  0
 15 16  2  0
 16 17  1  0
 17 18  2  0
 18 19  1  0
 18 20  1  0
 20 21  1  0
 21 22  1  0
  5 23  2  0
 23 24  1  0
 24  2  2  0
 11  6  1  0
 19 14  2  0
 22 17  1  0
  3 25  1  0
  4 26  1  0
  6 27  1  6
  7 28  1  0
  7 29  1  0
  8 30  1  0
  8 31  1  0
  9 32  1  0
  9 33  1  0
 10 34  1  0
 10 35  1  0
 11 36  1  6
 12 37  1  0
 12 38  1  0
 15 39  1  0
 16 40  1  0
 19 41  1  0
 21 42  1  0
 21 43  1  0
 23 44  1  0
 24 45  1  0
M  CHG  1   9   1
M  END
>  <meeko>  (4) 
{"is_sidechain": false}

>  <vina_kcal_mol>  (4) 
-9.316

>  <rmsd_cristal>  (4) 
2.54

$$$$
pose 5
     RDKit          3D

 45 48  0  0  0  0  0  0  0  0999 V2000
  -32.6260  -18.3300   -2.8990 F   0  0  0  0  0  0  0  0  0  0  0  0
  -33.0230  -18.5940   -1.6500 C   0  0  0  0  0  0  0  0  0  0  0  0
  -32.5550  -19.7300   -1.0060 C   0  0  0  0  0  0  0  0  0  0  0  0
  -32.9670  -20.0120    0.3020 C   0  0  0  0  0  0  0  0  0  0  0  0
  -33.8670  -19.1690    0.9730 C   0  0  0  0  0  0  0  0  0  0  0  0
  -34.3620  -19.4050    2.4020 C   0  0  2  0  0  0  0  0  0  0  0  0
  -33.6490  -20.5320    3.1910 C   0  0  0  0  0  0  0  0  0  0  0  0
  -34.1200  -21.9390    2.8410 C   0  0  0  0  0  0  0  0  0  0  0  0
  -35.6040  -22.0190    2.9020 N   0  0  0  0  0  0  0  0  0  0  0  0
  -36.2930  -21.0210    2.0330 C   0  0  0  0  0  0  0  0  0  0  0  0
  -35.9060  -19.6000    2.4480 C   0  0  1  0  0  0  0  0  0  0  0  0
  -36.4700  -19.2080    3.8300 C   0  0  0  0  0  0  0  0  0  0  0  0
  -36.9040  -17.8520    3.7670 O   0  0  0  0  0  0  0  0  0  0  0  0
  -38.1450  -17.6190    3.2380 C   0  0  0  0  0  0  0  0  0  0  0  0
  -39.1380  -18.5260    3.6640 C   0  0  0  0  0  0  0  0  0  0  0  0
  -40.4590  -18.4130    3.2180 C   0  0  0  0  0  0  0  0  0  0  0  0
  -40.7510  -17.3880    2.3480 C   0  0  0  0  0  0  0  0  0  0  0  0
  -39.7870  -16.5050    1.9260 C   0  0  0  0  0  0  0  0  0  0  0  0
  -38.4750  -16.5920    2.3500 C   0  0  0  0  0  0  0  0  0  0  0  0
  -40.2790  -15.5690    1.0710 O   0  0  0  0  0  0  0  0  0  0  0  0
  -41.6630  -15.9800    0.9830 C   0  0  0  0  0  0  0  0  0  0  0  0
  -41.9700  -17.1210    1.8110 O   0  0  0  0  0  0  0  0  0  0  0  0
  -34.2970  -18.0050    0.3000 C   0  0  0  0  0  0  0  0  0  0  0  0
  -33.8870  -17.7240   -1.0050 C   0  0  0  0  0  0  0  0  0  0  0  0
  -31.8606  -20.4089   -1.5227 H   0  0  0  0  0  0  0  0  0  0  0  0
  -32.5800  -20.9069    0.8112 H   0  0  0  0  0  0  0  0  0  0  0  0
  -34.0858  -18.4782    2.9261 H   0  0  0  0  0  0  0  0  0  0  0  0
  -32.5706  -20.4684    2.9836 H   0  0  0  0  0  0  0  0  0  0  0  0
  -33.8908  -20.3743    4.2524 H   0  0  0  0  0  0  0  0  0  0  0  0
  -33.7849  -22.1909    1.8240 H   0  0  0  0  0  0  0  0  0  0  0  0
  -33.6942  -22.6485    3.5658 H   0  0  0  0  0  0  0  0  0  0  0  0
  -35.8990  -22.9610    2.6070 H   0  0  0  0  0  0  0  0  0  0  0  0
  -35.9410  -21.9330    3.8730 H   0  0  0  0  0  0  0  0  0  0  0  0
  -35.9984  -21.1864    0.9862 H   0  0  0  0  0  0  0  0  0  0  0  0
  -37.3809  -21.1421    2.1415 H   0  0  0  0  0  0  0  0  0  0  0  0
  -36.3666  -18.9221    1.7143 H   0  0  0  0  0  0  0  0  0  0  0  0
  -37.3195  -19.8592    4.0836 H   0  0  0  0  0  0  0  0  0  0  0  0
  -35.6953  -19.3229    4.6024 H   0  0  0  0  0  0  0  0  0  0  0  0
  -38.8690  -19.3356    4.3584 H   0  0  0  0  0  0  0  0  0  0  0  0
  -41.2355  -19.1176    3.5506 H   0  0  0  0  0  0  0  0  0  0  0  0
  -37.7158  -15.8769    2.0003 H   0  0  0  0  0  0  0  0  0  0  0  0
  -42.2983  -15.1388    1.2972 H   0  0  0  0  0  0  0  0  0  0  0  0
  -41.8518  -16.2726   -0.0604 H   0  0  0  0  0  0  0  0  0  0  0  0
  -34.9700  -17.3037    0.8150 H   0  0  0  0  0  0  0  0  0  0  0  0
  -34.2471  -16.8193   -1.5167 H   0  0  0  0  0  0  0  0  0  0  0  0
  1  2  1  0
  2  3  1  0
  3  4  2  0
  4  5  1  0
  5  6  1  0
  6  7  1  0
  7  8  1  0
  8  9  1  0
  9 10  1  0
 10 11  1  0
 11 12  1  0
 12 13  1  0
 13 14  1  0
 14 15  1  0
 15 16  2  0
 16 17  1  0
 17 18  2  0
 18 19  1  0
 18 20  1  0
 20 21  1  0
 21 22  1  0
  5 23  2  0
 23 24  1  0
 24  2  2  0
 11  6  1  0
 19 14  2  0
 22 17  1  0
  3 25  1  0
  4 26  1  0
  6 27  1  1
  7 28  1  0
  7 29  1  0
  8 30  1  0
  8 31  1  0
  9 32  1  0
  9 33  1  0
 10 34  1  0
 10 35  1  0
 11 36  1  6
 12 37  1  0
 12 38  1  0
 15 39  1  0
 16 40  1  0
 19 41  1  0
 21 42  1  0
 21 43  1  0
 23 44  1  0
 24 45  1  0
M  CHG  1   9   1
M  END
>  <meeko>  (5) 
{"is_sidechain": false}

>  <vina_kcal_mol>  (5) 
-9.124

>  <rmsd_cristal>  (5) 
7.69

$$$$
pose 6
     RDKit          3D

 45 48  0  0  0  0  0  0  0  0999 V2000
  -37.8080  -16.3630    3.4100 F   0  0  0  0  0  0  0  0  0  0  0  0
  -36.9920  -17.2340    2.8070 C   0  0  0  0  0  0  0  0  0  0  0  0
  -37.5220  -18.2060    1.9710 C   0  0  0  0  0  0  0  0  0  0  0  0
  -36.6740  -19.1210    1.3360 C   0  0  0  0  0  0  0  0  0  0  0  0
  -35.2870  -19.0840    1.5450 C   0  0  0  0  0  0  0  0  0  0  0  0
  -34.2940  -20.0450    0.8860 C   0  0  2  0  0  0  0  0  0  0  0  0
  -34.8890  -21.0350   -0.1460 C   0  0  0  0  0  0  0  0  0  0  0  0
  -35.5830  -22.2440    0.4710 C   0  0  0  0  0  0  0  0  0  0  0  0
  -34.6980  -22.8930    1.4750 N   0  0  0  0  0  0  0  0  0  0  0  0
  -34.2350  -21.9690    2.5510 C   0  0  0  0  0  0  0  0  0  0  0  0
  -33.4450  -20.8060    1.9460 C   0  0  1  0  0  0  0  0  0  0  0  0
  -32.0910  -21.2500    1.3540 C   0  0  0  0  0  0  0  0  0  0  0  0
  -31.6370  -22.3890    2.0800 O   0  0  0  0  0  0  0  0  0  0  0  0
  -30.8710  -22.1540    3.1910 C   0  0  0  0  0  0  0  0  0  0  0  0
  -29.8150  -21.2420    2.9860 C   0  0  0  0  0  0  0  0  0  0  0  0
  -28.9500  -20.8920    4.0280 C   0  0  0  0  0  0  0  0  0  0  0  0
  -29.1670  -21.4720    5.2570 C   0  0  0  0  0  0  0  0  0  0  0  0
  -30.1920  -22.3650    5.4600 C   0  0  0  0  0  0  0  0  0  0  0  0
  -31.0600  -22.7290    4.4500 C   0  0  0  0  0  0  0  0  0  0  0  0
  -30.2340  -22.8210    6.7410 O   0  0  0  0  0  0  0  0  0  0  0  0
  -29.1010  -22.1310    7.3150 C   0  0  0  0  0  0  0  0  0  0  0  0
  -28.4360  -21.2560    6.3810 O   0  0  0  0  0  0  0  0  0  0  0  0
  -34.7780  -18.0620    2.3750 C   0  0  0  0  0  0  0  0  0  0  0  0
  -35.6240  -17.1490    3.0090 C   0  0  0  0  0  0  0  0  0  0  0  0
  -38.6085  -18.2577    1.8071 H   0  0  0  0  0  0  0  0  0  0  0  0
  -37.1010  -19.8797    0.6637 H   0  0  0  0  0  0  0  0  0  0  0  0
  -33.6467  -19.3805    0.2949 H   0  0  0  0  0  0  0  0  0  0  0  0
  -35.6232  -20.4926   -0.7598 H   0  0  0  0  0  0  0  0  0  0  0  0
  -34.0437  -21.4232   -0.7332 H   0  0  0  0  0  0  0  0  0  0  0  0
  -36.5110  -21.9173    0.9631 H   0  0  0  0  0  0  0  0  0  0  0  0
  -35.8120  -22.9686   -0.3243 H   0  0  0  0  0  0  0  0  0  0  0  0
  -35.2100  -23.6710    1.9170 H   0  0  0  0  0  0  0  0  0  0  0  0
  -33.8870  -23.3410    1.0220 H   0  0  0  0  0  0  0  0  0  0  0  0
  -35.1081  -21.5733    3.0906 H   0  0  0  0  0  0  0  0  0  0  0  0
  -33.5843  -22.5227    3.2438 H   0  0  0  0  0  0  0  0  0  0  0  0
  -33.2179  -20.1162    2.7722 H   0  0  0  0  0  0  0  0  0  0  0  0
  -32.2168  -21.5112    0.2929 H   0  0  0  0  0  0  0  0  0  0  0  0
  -31.3575  -20.4339    1.4319 H   0  0  0  0  0  0  0  0  0  0  0  0
  -29.6692  -20.7985    1.9900 H   0  0  0  0  0  0  0  0  0  0  0  0
  -28.1268  -20.1795    3.8709 H   0  0  0  0  0  0  0  0  0  0  0  0
  -31.8730  -23.4476    4.6306 H   0  0  0  0  0  0  0  0  0  0  0  0
  -29.4523  -21.5307    8.1672 H   0  0  0  0  0  0  0  0  0  0  0  0
  -28.3728  -22.8965    7.6212 H   0  0  0  0  0  0  0  0  0  0  0  0
  -33.6913  -17.9828    2.5259 H   0  0  0  0  0  0  0  0  0  0  0  0
  -35.2075  -16.3690    3.6633 H   0  0  0  0  0  0  0  0  0  0  0  0
  1  2  1  0
  2  3  1  0
  3  4  2  0
  4  5  1  0
  5  6  1  0
  6  7  1  0
  7  8  1  0
  8  9  1  0
  9 10  1  0
 10 11  1  0
 11 12  1  0
 12 13  1  0
 13 14  1  0
 14 15  1  0
 15 16  2  0
 16 17  1  0
 17 18  2  0
 18 19  1  0
 18 20  1  0
 20 21  1  0
 21 22  1  0
  5 23  2  0
 23 24  1  0
 24  2  2  0
 11  6  1  0
 19 14  2  0
 22 17  1  0
  3 25  1  0
  4 26  1  0
  6 27  1  6
  7 28  1  0
  7 29  1  0
  8 30  1  0
  8 31  1  0
  9 32  1  0
  9 33  1  0
 10 34  1  0
 10 35  1  0
 11 36  1  1
 12 37  1  0
 12 38  1  0
 15 39  1  0
 16 40  1  0
 19 41  1  0
 21 42  1  0
 21 43  1  0
 23 44  1  0
 24 45  1  0
M  CHG  1   9   1
M  END
>  <meeko>  (6) 
{"is_sidechain": false}

>  <vina_kcal_mol>  (6) 
-9.074

>  <rmsd_cristal>  (6) 
2.88

$$$$
pose 7
     RDKit          3D

 45 48  0  0  0  0  0  0  0  0999 V2000
  -29.4630  -22.8820    4.8970 F   0  0  0  0  0  0  0  0  0  0  0  0
  -30.4660  -22.3630    4.1800 C   0  0  0  0  0  0  0  0  0  0  0  0
  -30.1980  -21.3870    3.2310 C   0  0  0  0  0  0  0  0  0  0  0  0
  -31.2420  -20.8400    2.4770 C   0  0  0  0  0  0  0  0  0  0  0  0
  -32.5700  -21.2510    2.6780 C   0  0  0  0  0  0  0  0  0  0  0  0
  -33.7650  -20.7040    1.8930 C   0  0  2  0  0  0  0  0  0  0  0  0
  -34.6860  -21.7610    1.2340 C   0  0  0  0  0  0  0  0  0  0  0  0
  -34.1480  -22.3370   -0.0710 C   0  0  0  0  0  0  0  0  0  0  0  0
  -33.7460  -21.2420   -0.9940 N   0  0  0  0  0  0  0  0  0  0  0  0
  -32.7500  -20.3000   -0.4050 C   0  0  0  0  0  0  0  0  0  0  0  0
  -33.3250  -19.6370    0.8480 C   0  0  1  0  0  0  0  0  0  0  0  0
  -34.4800  -18.6650    0.5320 C   0  0  0  0  0  0  0  0  0  0  0  0
  -34.9810  -18.1500    1.7630 O   0  0  0  0  0  0  0  0  0  0  0  0
  -36.3400  -18.0330    1.8830 C   0  0  0  0  0  0  0  0  0  0  0  0
  -36.7880  -16.7270    2.1670 C   0  0  0  0  0  0  0  0  0  0  0  0
  -38.1510  -16.4460    2.3090 C   0  0  0  0  0  0  0  0  0  0  0  0
  -39.0350  -17.4910    2.1620 C   0  0  0  0  0  0  0  0  0  0  0  0
  -38.6030  -18.7660    1.8890 C   0  0  0  0  0  0  0  0  0  0  0  0
  -37.2640  -19.0720    1.7440 C   0  0  0  0  0  0  0  0  0  0  0  0
  -39.6310  -19.6500    1.7820 O   0  0  0  0  0  0  0  0  0  0  0  0
  -40.7610  -18.7870    2.0450 C   0  0  0  0  0  0  0  0  0  0  0  0
  -40.3870  -17.4120    2.2630 O   0  0  0  0  0  0  0  0  0  0  0  0
  -32.8020  -22.2680    3.6280 C   0  0  0  0  0  0  0  0  0  0  0  0
  -31.7600  -22.8140    4.3810 C   0  0  0  0  0  0  0  0  0  0  0  0
  -29.1653  -21.0434    3.0715 H   0  0  0  0  0  0  0  0  0  0  0  0
  -31.0196  -20.0774    1.7161 H   0  0  0  0  0  0  0  0  0  0  0  0
  -34.3874  -20.2334    2.6683 H   0  0  0  0  0  0  0  0  0  0  0  0
  -34.8236  -22.5890    1.9450 H   0  0  0  0  0  0  0  0  0  0  0  0
  -35.6272  -21.2480    0.9871 H   0  0  0  0  0  0  0  0  0  0  0  0
  -33.2736  -22.9686    0.1448 H   0  0  0  0  0  0  0  0  0  0  0  0
  -34.9374  -22.9353   -0.5494 H   0  0  0  0  0  0  0  0  0  0  0  0
  -33.3340  -21.6570   -1.8430 H   0  0  0  0  0  0  0  0  0  0  0  0
  -34.5680  -20.7200   -1.3320 H   0  0  0  0  0  0  0  0  0  0  0  0
  -31.8393  -20.8555   -0.1365 H   0  0  0  0  0  0  0  0  0  0  0  0
  -32.5114  -19.5218   -1.1449 H   0  0  0  0  0  0  0  0  0  0  0  0
  -32.5151  -19.0336    1.2838 H   0  0  0  0  0  0  0  0  0  0  0  0
  -34.1105  -17.8392   -0.0938 H   0  0  0  0  0  0  0  0  0  0  0  0
  -35.2789  -19.1899   -0.0124 H   0  0  0  0  0  0  0  0  0  0  0  0
  -36.0538  -15.9155    2.2788 H   0  0  0  0  0  0  0  0  0  0  0  0
  -38.5034  -15.4277    2.5300 H   0  0  0  0  0  0  0  0  0  0  0  0
  -36.9359  -20.0991    1.5264 H   0  0  0  0  0  0  0  0  0  0  0  0
  -41.4428  -18.8314    1.1830 H   0  0  0  0  0  0  0  0  0  0  0  0
  -41.2385  -19.1462    2.9686 H   0  0  0  0  0  0  0  0  0  0  0  0
  -33.8264  -22.6392    3.7790 H   0  0  0  0  0  0  0  0  0  0  0  0
  -31.9654  -23.5956    5.1273 H   0  0  0  0  0  0  0  0  0  0  0  0
  1  2  1  0
  2  3  1  0
  3  4  2  0
  4  5  1  0
  5  6  1  0
  6  7  1  0
  7  8  1  0
  8  9  1  0
  9 10  1  0
 10 11  1  0
 11 12  1  0
 12 13  1  0
 13 14  1  0
 14 15  1  0
 15 16  2  0
 16 17  1  0
 17 18  2  0
 18 19  1  0
 18 20  1  0
 20 21  1  0
 21 22  1  0
  5 23  2  0
 23 24  1  0
 24  2  2  0
 11  6  1  0
 19 14  2  0
 22 17  1  0
  3 25  1  0
  4 26  1  0
  6 27  1  1
  7 28  1  0
  7 29  1  0
  8 30  1  0
  8 31  1  0
  9 32  1  0
  9 33  1  0
 10 34  1  0
 10 35  1  0
 11 36  1  1
 12 37  1  0
 12 38  1  0
 15 39  1  0
 16 40  1  0
 19 41  1  0
 21 42  1  0
 21 43  1  0
 23 44  1  0
 24 45  1  0
M  CHG  1   9   1
M  END
>  <meeko>  (7) 
{"is_sidechain": false}

>  <vina_kcal_mol>  (7) 
-9.066

>  <rmsd_cristal>  (7) 
7.32

$$$$
pose 8
     RDKit          3D

 45 48  0  0  0  0  0  0  0  0999 V2000
  -28.6770  -22.0780    5.7150 F   0  0  0  0  0  0  0  0  0  0  0  0
  -29.7200  -22.0210    4.8790 C   0  0  0  0  0  0  0  0  0  0  0  0
  -29.6240  -21.2780    3.7120 C   0  0  0  0  0  0  0  0  0  0  0  0
  -30.7110  -21.2140    2.8320 C   0  0  0  0  0  0  0  0  0  0  0  0
  -31.9130  -21.8790    3.1210 C   0  0  0  0  0  0  0  0  0  0  0  0
  -33.1440  -21.8600    2.2110 C   0  0  2  0  0  0  0  0  0  0  0  0
  -32.8910  -21.4760    0.7320 C   0  0  0  0  0  0  0  0  0  0  0  0
  -32.7420  -19.9790    0.4880 C   0  0  0  0  0  0  0  0  0  0  0  0
  -33.8720  -19.2380    1.1080 N   0  0  0  0  0  0  0  0  0  0  0  0
  -34.0310  -19.5020    2.5680 C   0  0  0  0  0  0  0  0  0  0  0  0
  -34.2870  -20.9900    2.8120 C   0  0  1  0  0  0  0  0  0  0  0  0
  -35.6640  -21.4520    2.2910 C   0  0  0  0  0  0  0  0  0  0  0  0
  -36.6410  -20.4990    2.7020 O   0  0  0  0  0  0  0  0  0  0  0  0
  -37.2340  -20.7020    3.9200 C   0  0  0  0  0  0  0  0  0  0  0  0
  -36.7540  -19.8620    4.9470 C   0  0  0  0  0  0  0  0  0  0  0  0
  -37.2690  -19.9430    6.2450 C   0  0  0  0  0  0  0  0  0  0  0  0
  -38.2560  -20.8720    6.4820 C   0  0  0  0  0  0  0  0  0  0  0  0
  -38.7230  -21.6950    5.4850 C   0  0  0  0  0  0  0  0  0  0  0  0
  -38.2340  -21.6380    4.1950 C   0  0  0  0  0  0  0  0  0  0  0  0
  -39.6960  -22.5390    5.9240 O   0  0  0  0  0  0  0  0  0  0  0  0
  -39.7700  -22.1690    7.3200 C   0  0  0  0  0  0  0  0  0  0  0  0
  -38.8730  -21.0950    7.6710 O   0  0  0  0  0  0  0  0  0  0  0  0
  -31.9650  -22.6510    4.3010 C   0  0  0  0  0  0  0  0  0  0  0  0
  -30.8800  -22.7150    5.1790 C   0  0  0  0  0  0  0  0  0  0  0  0
  -28.6941  -20.7391    3.4778 H   0  0  0  0  0  0  0  0  0  0  0  0
  -30.6219  -20.6346    1.9012 H   0  0  0  0  0  0  0  0  0  0  0  0
  -33.4539  -22.9149    2.1772 H   0  0  0  0  0  0  0  0  0  0  0  0
  -31.9670  -21.9724    0.4007 H   0  0  0  0  0  0  0  0  0  0  0  0
  -33.7775  -21.8000    0.1670 H   0  0  0  0  0  0  0  0  0  0  0  0
  -31.7958  -19.6323    0.9290 H   0  0  0  0  0  0  0  0  0  0  0  0
  -32.7446  -19.7921   -0.5960 H   0  0  0  0  0  0  0  0  0  0  0  0
  -33.7190  -18.2270    0.9780 H   0  0  0  0  0  0  0  0  0  0  0  0
  -34.7580  -19.4320    0.6160 H   0  0  0  0  0  0  0  0  0  0  0  0
  -33.1130  -19.2005    3.0937 H   0  0  0  0  0  0  0  0  0  0  0  0
  -34.8876  -18.9243    2.9455 H   0  0  0  0  0  0  0  0  0  0  0  0
  -34.2982  -21.1317    3.9028 H   0  0  0  0  0  0  0  0  0  0  0  0
  -35.6443  -21.5145    1.1930 H   0  0  0  0  0  0  0  0  0  0  0  0
  -35.9090  -22.4447    2.6966 H   0  0  0  0  0  0  0  0  0  0  0  0
  -35.9622  -19.1318    4.7234 H   0  0  0  0  0  0  0  0  0  0  0  0
  -36.8984  -19.2878    7.0471 H   0  0  0  0  0  0  0  0  0  0  0  0
  -38.6186  -22.3066    3.4108 H   0  0  0  0  0  0  0  0  0  0  0  0
  -40.7994  -21.8522    7.5437 H   0  0  0  0  0  0  0  0  0  0  0  0
  -39.4720  -23.0495    7.9081 H   0  0  0  0  0  0  0  0  0  0  0  0
  -32.8800  -23.2149    4.5348 H   0  0  0  0  0  0  0  0  0  0  0  0
  -30.9468  -23.3116    6.1007 H   0  0  0  0  0  0  0  0  0  0  0  0
  1  2  1  0
  2  3  1  0
  3  4  2  0
  4  5  1  0
  5  6  1  0
  6  7  1  0
  7  8  1  0
  8  9  1  0
  9 10  1  0
 10 11  1  0
 11 12  1  0
 12 13  1  0
 13 14  1  0
 14 15  1  0
 15 16  2  0
 16 17  1  0
 17 18  2  0
 18 19  1  0
 18 20  1  0
 20 21  1  0
 21 22  1  0
  5 23  2  0
 23 24  1  0
 24  2  2  0
 11  6  1  0
 19 14  2  0
 22 17  1  0
  3 25  1  0
  4 26  1  0
  6 27  1  6
  7 28  1  0
  7 29  1  0
  8 30  1  0
  8 31  1  0
  9 32  1  0
  9 33  1  0
 10 34  1  0
 10 35  1  0
 11 36  1  1
 12 37  1  0
 12 38  1  0
 15 39  1  0
 16 40  1  0
 19 41  1  0
 21 42  1  0
 21 43  1  0
 23 44  1  0
 24 45  1  0
M  CHG  1   9   1
M  END
>  <meeko>  (8) 
{"is_sidechain": false}

>  <vina_kcal_mol>  (8) 
-9.037

>  <rmsd_cristal>  (8) 
6.94

$$$$
pose 9
     RDKit          3D

 45 48  0  0  0  0  0  0  0  0999 V2000
  -28.9070  -22.3060    5.8120 F   0  0  0  0  0  0  0  0  0  0  0  0
  -29.8880  -22.1530    4.9160 C   0  0  0  0  0  0  0  0  0  0  0  0
  -29.6740  -21.3720    3.7900 C   0  0  0  0  0  0  0  0  0  0  0  0
  -30.6960  -21.2070    2.8480 C   0  0  0  0  0  0  0  0  0  0  0  0
  -31.9510  -21.8090    3.0320 C   0  0  0  0  0  0  0  0  0  0  0  0
  -33.1170  -21.6810    2.0490 C   0  0  2  0  0  0  0  0  0  0  0  0
  -32.7700  -21.1030    0.6540 C   0  0  0  0  0  0  0  0  0  0  0  0
  -32.6300  -19.5860    0.6190 C   0  0  0  0  0  0  0  0  0  0  0  0
  -33.8120  -18.9420    1.2500 N   0  0  0  0  0  0  0  0  0  0  0  0
  -34.0660  -19.3970    2.6480 C   0  0  0  0  0  0  0  0  0  0  0  0
  -34.3130  -20.9060    2.6770 C   0  0  1  0  0  0  0  0  0  0  0  0
  -35.6430  -21.3060    2.0050 C   0  0  0  0  0  0  0  0  0  0  0  0
  -36.3770  -20.1170    1.7240 O   0  0  0  0  0  0  0  0  0  0  0  0
  -37.6240  -20.0100    2.2780 C   0  0  0  0  0  0  0  0  0  0  0  0
  -38.3890  -18.9320    1.7850 C   0  0  0  0  0  0  0  0  0  0  0  0
  -39.6880  -18.6970    2.2480 C   0  0  0  0  0  0  0  0  0  0  0  0
  -40.1890  -19.5540    3.2010 C   0  0  0  0  0  0  0  0  0  0  0  0
  -39.4470  -20.6030    3.6870 C   0  0  0  0  0  0  0  0  0  0  0  0
  -38.1620  -20.8590    3.2490 C   0  0  0  0  0  0  0  0  0  0  0  0
  -40.1220  -21.3280    4.6190 O   0  0  0  0  0  0  0  0  0  0  0  0
  -41.3690  -20.5980    4.6810 C   0  0  0  0  0  0  0  0  0  0  0  0
  -41.4230  -19.4850    3.7650 O   0  0  0  0  0  0  0  0  0  0  0  0
  -32.1230  -22.6230    4.1720 C   0  0  0  0  0  0  0  0  0  0  0  0
  -31.1040  -22.7870    5.1120 C   0  0  0  0  0  0  0  0  0  0  0  0
  -28.7010  -20.8822    3.6373 H   0  0  0  0  0  0  0  0  0  0  0  0
  -30.5134  -20.5971    1.9509 H   0  0  0  0  0  0  0  0  0  0  0  0
  -33.4059  -22.7248    1.8565 H   0  0  0  0  0  0  0  0  0  0  0  0
  -31.8173  -21.5442    0.3259 H   0  0  0  0  0  0  0  0  0  0  0  0
  -33.6103  -21.3564   -0.0090 H   0  0  0  0  0  0  0  0  0  0  0  0
  -31.7221  -19.2930    1.1666 H   0  0  0  0  0  0  0  0  0  0  0  0
  -32.5617  -19.2580   -0.4287 H   0  0  0  0  0  0  0  0  0  0  0  0
  -33.6670  -17.9210    1.2650 H   0  0  0  0  0  0  0  0  0  0  0  0
  -34.6590  -19.0760    0.6770 H   0  0  0  0  0  0  0  0  0  0  0  0
  -33.1913  -19.1602    3.2715 H   0  0  0  0  0  0  0  0  0  0  0  0
  -34.9560  -18.8806    3.0368 H   0  0  0  0  0  0  0  0  0  0  0  0
  -34.3963  -21.1898    3.7365 H   0  0  0  0  0  0  0  0  0  0  0  0
  -35.4391  -21.8473    1.0693 H   0  0  0  0  0  0  0  0  0  0  0  0
  -36.2229  -21.9611    2.6718 H   0  0  0  0  0  0  0  0  0  0  0  0
  -37.9570  -18.2654    1.0241 H   0  0  0  0  0  0  0  0  0  0  0  0
  -40.2870  -17.8579    1.8643 H   0  0  0  0  0  0  0  0  0  0  0  0
  -37.5818  -21.7027    3.6510 H   0  0  0  0  0  0  0  0  0  0  0  0
  -42.1906  -21.2887    4.4404 H   0  0  0  0  0  0  0  0  0  0  0  0
  -41.4573  -20.1884    5.6981 H   0  0  0  0  0  0  0  0  0  0  0  0
  -33.0820  -23.1401    4.3233 H   0  0  0  0  0  0  0  0  0  0  0  0
  -31.2653  -23.4145    6.0010 H   0  0  0  0  0  0  0  0  0  0  0  0
  1  2  1  0
  2  3  1  0
  3  4  2  0
  4  5  1  0
  5  6  1  0
  6  7  1  0
  7  8  1  0
  8  9  1  0
  9 10  1  0
 10 11  1  0
 11 12  1  0
 12 13  1  0
 13 14  1  0
 14 15  1  0
 15 16  2  0
 16 17  1  0
 17 18  2  0
 18 19  1  0
 18 20  1  0
 20 21  1  0
 21 22  1  0
  5 23  2  0
 23 24  1  0
 24  2  2  0
 11  6  1  0
 19 14  2  0
 22 17  1  0
  3 25  1  0
  4 26  1  0
  6 27  1  6
  7 28  1  0
  7 29  1  0
  8 30  1  0
  8 31  1  0
  9 32  1  0
  9 33  1  0
 10 34  1  0
 10 35  1  0
 11 36  1  1
 12 37  1  0
 12 38  1  0
 15 39  1  0
 16 40  1  0
 19 41  1  0
 21 42  1  0
 21 43  1  0
 23 44  1  0
 24 45  1  0
M  CHG  1   9   1
M  END
>  <meeko>  (9) 
{"is_sidechain": false}

>  <vina_kcal_mol>  (9) 
-8.969

>  <rmsd_cristal>  (9) 
7.66

$$$$
