donepezilo
     RDKit          3D

 58 61  0  0  0  0  0  0  0  0999 V2000
  -18.4790  -40.5990   21.7820 C   0  0  0  0  0  0  0  0  0  0  0  0
  -18.7190  -41.8500   22.4100 O   0  0  0  0  0  0  0  0  0  0  0  0
  -17.9420  -42.1900   23.4900 C   0  0  0  0  0  0  0  0  0  0  0  0
  -16.6420  -42.7120   23.3910 C   0  0  0  0  0  0  0  0  0  0  0  0
  -15.9550  -43.0170   24.5560 C   0  0  0  0  0  0  0  0  0  0  0  0
  -16.5610  -42.8110   25.7870 C   0  0  0  0  0  0  0  0  0  0  0  0
  -17.8400  -42.3060   25.9300 C   0  0  0  0  0  0  0  0  0  0  0  0
  -18.5430  -41.9890   24.7650 C   0  0  0  0  0  0  0  0  0  0  0  0
  -19.8170  -41.4770   24.7490 O   0  0  0  0  0  0  0  0  0  0  0  0
  -20.4680  -41.2820   25.9980 C   0  0  0  0  0  0  0  0  0  0  0  0
  -15.6270  -43.2090   26.8300 C   0  0  0  0  0  0  0  0  0  0  0  0
  -15.8790  -43.2000   28.0210 O   0  0  0  0  0  0  0  0  0  0  0  0
  -14.3030  -43.6030   26.2000 C   0  0  0  0  0  0  0  0  0  0  0  0
  -13.8260  -44.9510   26.7520 C   0  0  0  0  0  0  0  0  0  0  0  0
  -12.8300  -44.8630   27.9260 C   0  0  0  0  0  0  0  0  0  0  0  0
  -13.5260  -45.0210   29.2890 C   0  0  0  0  0  0  0  0  0  0  0  0
  -12.5310  -45.0770   30.4440 C   0  0  0  0  0  0  0  0  0  0  0  0
  -11.5470  -46.1890   30.2000 N   0  0  0  0  0  0  0  0  0  0  0  0
  -10.6680  -46.4930   31.3980 C   0  0  0  0  0  0  0  0  0  0  0  0
   -9.5450  -45.5250   31.6520 C   0  0  0  0  0  0  0  0  0  0  0  0
   -9.8090  -44.2330   32.1350 C   0  0  0  0  0  0  0  0  0  0  0  0
   -8.7640  -43.3430   32.3890 C   0  0  0  0  0  0  0  0  0  0  0  0
   -7.4460  -43.7300   32.1610 C   0  0  0  0  0  0  0  0  0  0  0  0
   -7.1700  -45.0040   31.6720 C   0  0  0  0  0  0  0  0  0  0  0  0
   -8.2110  -45.8970   31.4160 C   0  0  0  0  0  0  0  0  0  0  0  0
  -10.7720  -45.9740   28.9270 C   0  0  0  0  0  0  0  0  0  0  0  0
  -11.7440  -45.9410   27.7550 C   0  0  0  0  0  0  0  0  0  0  0  0
  -14.5860  -43.6080   24.6810 C   0  0  0  0  0  0  0  0  0  0  0  0
  -18.3306  -39.8256   22.5501 H   0  0  0  0  0  0  0  0  0  0  0  0
  -17.5782  -40.6704   21.1548 H   0  0  0  0  0  0  0  0  0  0  0  0
  -19.3423  -40.3320   21.1548 H   0  0  0  0  0  0  0  0  0  0  0  0
  -16.1775  -42.8758   22.4075 H   0  0  0  0  0  0  0  0  0  0  0  0
  -18.2875  -42.1592   26.9241 H   0  0  0  0  0  0  0  0  0  0  0  0
  -19.7632  -41.4931   26.8157 H   0  0  0  0  0  0  0  0  0  0  0  0
  -20.8145  -40.2406   26.0722 H   0  0  0  0  0  0  0  0  0  0  0  0
  -21.3299  -41.9614   26.0722 H   0  0  0  0  0  0  0  0  0  0  0  0
  -13.4785  -42.9123   26.4305 H   0  0  0  0  0  0  0  0  0  0  0  0
  -14.7089  -45.5099   27.0956 H   0  0  0  0  0  0  0  0  0  0  0  0
  -13.2869  -45.4446   25.9300 H   0  0  0  0  0  0  0  0  0  0  0  0
  -12.3729  -43.8626   27.9103 H   0  0  0  0  0  0  0  0  0  0  0  0
  -14.1996  -44.1652   29.4436 H   0  0  0  0  0  0  0  0  0  0  0  0
  -14.0802  -45.9711   29.2758 H   0  0  0  0  0  0  0  0  0  0  0  0
  -11.9938  -44.1196   30.5128 H   0  0  0  0  0  0  0  0  0  0  0  0
  -13.0694  -45.2617   31.3853 H   0  0  0  0  0  0  0  0  0  0  0  0
  -12.0990  -47.0460   30.0660 H   0  0  0  0  0  0  0  0  0  0  0  0
  -11.3093  -46.5070   32.2916 H   0  0  0  0  0  0  0  0  0  0  0  0
  -10.1858  -47.4565   31.1763 H   0  0  0  0  0  0  0  0  0  0  0  0
  -10.8480  -43.9197   32.3147 H   0  0  0  0  0  0  0  0  0  0  0  0
   -8.9821  -42.3343   32.7699 H   0  0  0  0  0  0  0  0  0  0  0  0
   -6.6233  -43.0295   32.3671 H   0  0  0  0  0  0  0  0  0  0  0  0
   -6.1289  -45.3072   31.4871 H   0  0  0  0  0  0  0  0  0  0  0  0
   -7.9854  -46.9006   31.0262 H   0  0  0  0  0  0  0  0  0  0  0  0
  -10.2287  -45.0192   28.9827 H   0  0  0  0  0  0  0  0  0  0  0  0
  -10.0500  -46.7923   28.7884 H   0  0  0  0  0  0  0  0  0  0  0  0
  -11.1803  -45.7321   26.8338 H   0  0  0  0  0  0  0  0  0  0  0  0
  -12.2455  -46.9188   27.7064 H   0  0  0  0  0  0  0  0  0  0  0  0
  -13.8467  -42.9945   24.1452 H   0  0  0  0  0  0  0  0  0  0  0  0
  -14.5231  -44.6163   24.2459 H   0  0  0  0  0  0  0  0  0  0  0  0
  1  2  1  0
  2  3  1  0
  3  4  2  0
  4  5  1  0
  5  6  2  0
  6  7  1  0
  7  8  2  0
  8  9  1  0
  9 10  1  0
  6 11  1  0
 11 12  2  0
 11 13  1  0
 13 14  1  0
 14 15  1  0
 15 16  1  0
 16 17  1  0
 17 18  1  0
 18 19  1  0
 19 20  1  0
 20 21  2  0
 21 22  1  0
 22 23  2  0
 23 24  1  0
 24 25  2  0
 18 26  1  0
 26 27  1  0
 13 28  1  0
  8  3  1  0
 27 15  1  0
 28  5  1  0
 25 20  1  0
  1 29  1  0
  1 30  1  0
  1 31  1  0
  4 32  1  0
  7 33  1  0
 10 34  1  0
 10 35  1  0
 10 36  1  0
 13 37  1  0
 14 38  1  0
 14 39  1  0
 15 40  1  0
 16 41  1  0
 16 42  1  0
 17 43  1  0
 17 44  1  0
 18 45  1  0
 19 46  1  0
 19 47  1  0
 21 48  1  0
 22 49  1  0
 23 50  1  0
 24 51  1  0
 25 52  1  0
 26 53  1  0
 26 54  1  0
 27 55  1  0
 27 56  1  0
 28 57  1  0
 28 58  1  0
M  CHG  1  18   1
M  END
>  <meeko>  (1) 
{"is_sidechain": false}

>  <vina_kcal_mol>  (1) 
-12.161

$$$$
