edrofonio
     RDKit          3D

 28 28  0  0  0  0  0  0  0  0999 V2000
  -12.3630  -46.3710   27.5170 C   0  0  0  0  0  0  0  0  0  0  0  0
  -11.1350  -46.3170   28.4150 C   0  0  0  0  0  0  0  0  0  0  0  0
  -11.0590  -45.0350   29.2660 N   0  0  0  0  0  0  0  0  0  0  0  0
  -12.2600  -44.9230   30.2040 C   0  0  0  0  0  0  0  0  0  0  0  0
  -11.0390  -43.7630   28.4100 C   0  0  0  0  0  0  0  0  0  0  0  0
   -9.7460  -45.1160   30.0570 C   0  0  0  0  0  0  0  0  0  0  0  0
   -9.3460  -46.3490   30.6070 C   0  0  0  0  0  0  0  0  0  0  0  0
   -8.1680  -46.4570   31.3520 C   0  0  0  0  0  0  0  0  0  0  0  0
   -7.3820  -45.3330   31.5720 C   0  0  0  0  0  0  0  0  0  0  0  0
   -7.7800  -44.1080   31.0530 C   0  0  0  0  0  0  0  0  0  0  0  0
   -6.9770  -43.0390   31.3130 O   0  0  0  0  0  0  0  0  0  0  0  0
   -8.9520  -43.9850   30.3070 C   0  0  0  0  0  0  0  0  0  0  0  0
  -13.2700  -46.4109   28.1381 H   0  0  0  0  0  0  0  0  0  0  0  0
  -12.3926  -45.4733   26.8820 H   0  0  0  0  0  0  0  0  0  0  0  0
  -12.3137  -47.2678   26.8820 H   0  0  0  0  0  0  0  0  0  0  0  0
  -11.1585  -47.1842   29.0913 H   0  0  0  0  0  0  0  0  0  0  0  0
  -10.2514  -46.3264   27.7599 H   0  0  0  0  0  0  0  0  0  0  0  0
  -11.9143  -44.9552   31.2478 H   0  0  0  0  0  0  0  0  0  0  0  0
  -12.7818  -43.9723   30.0197 H   0  0  0  0  0  0  0  0  0  0  0  0
  -12.9485  -45.7608   30.0197 H   0  0  0  0  0  0  0  0  0  0  0  0
  -11.0251  -42.8799   29.0657 H   0  0  0  0  0  0  0  0  0  0  0  0
  -10.1407  -43.7624   27.7751 H   0  0  0  0  0  0  0  0  0  0  0  0
  -11.9368  -43.7342   27.7751 H   0  0  0  0  0  0  0  0  0  0  0  0
   -9.9700  -47.2408   30.4480 H   0  0  0  0  0  0  0  0  0  0  0  0
   -7.8639  -47.4308   31.7634 H   0  0  0  0  0  0  0  0  0  0  0  0
   -6.4513  -45.4127   32.1530 H   0  0  0  0  0  0  0  0  0  0  0  0
   -6.8200  -42.9340   32.2660 H   0  0  0  0  0  0  0  0  0  0  0  0
   -9.2542  -43.0028   29.9147 H   0  0  0  0  0  0  0  0  0  0  0  0
  1  2  1  0
  2  3  1  0
  3  4  1  0
  3  5  1  0
  3  6  1  0
  6  7  2  0
  7  8  1  0
  8  9  2  0
  9 10  1  0
 10 11  1  0
 10 12  2  0
 12  6  1  0
  1 13  1  0
  1 14  1  0
  1 15  1  0
  2 16  1  0
  2 17  1  0
  4 18  1  0
  4 19  1  0
  4 20  1  0
  5 21  1  0
  5 22  1  0
  5 23  1  0
  7 24  1  0
  8 25  1  0
  9 26  1  0
 11 27  1  0
 12 28  1  0
M  CHG  1   3   1
M  END
>  <meeko>  (1) 
{"is_sidechain": false}

>  <vina_kcal_mol>  (1) 
-6.568

$$$$
