fisostigmina
     RDKit          3D

 42 44  0  0  0  0  0  0  0  0999 V2000
  -17.2280  -42.4950   25.2930 C   0  0  0  0  0  0  0  0  0  0  0  0
  -16.0330  -43.2950   25.2950 N   0  0  0  0  0  0  0  0  0  0  0  0
  -15.3240  -43.5480   26.4350 C   0  0  0  0  0  0  0  0  0  0  0  0
  -15.6500  -43.1840   27.5570 O   0  0  0  0  0  0  0  0  0  0  0  0
  -14.1780  -44.2650   26.1140 O   0  0  0  0  0  0  0  0  0  0  0  0
  -13.0700  -44.0450   26.9440 C   0  0  0  0  0  0  0  0  0  0  0  0
  -12.5310  -42.7540   26.9640 C   0  0  0  0  0  0  0  0  0  0  0  0
  -11.4350  -42.4690   27.7830 C   0  0  0  0  0  0  0  0  0  0  0  0
  -10.9000  -43.4790   28.5710 C   0  0  0  0  0  0  0  0  0  0  0  0
  -11.4710  -44.7550   28.5600 C   0  0  0  0  0  0  0  0  0  0  0  0
  -12.5660  -45.0560   27.7610 C   0  0  0  0  0  0  0  0  0  0  0  0
  -10.6960  -45.6680   29.4600 C   0  0  2  0  0  0  0  0  0  0  0  0
  -10.0440  -46.8070   28.6800 C   0  0  0  0  0  0  0  0  0  0  0  0
  -11.5120  -46.1640   30.6550 C   0  0  0  0  0  0  0  0  0  0  0  0
  -11.4500  -45.0150   31.6390 C   0  0  0  0  0  0  0  0  0  0  0  0
  -10.0250  -44.5560   31.5260 N   0  0  0  0  0  0  0  0  0  0  0  0
   -9.7650  -43.2360   32.1710 C   0  0  0  0  0  0  0  0  0  0  0  0
   -9.6510  -44.6810   30.0640 C   0  0  2  0  0  0  0  0  0  0  0  0
   -9.7990  -43.3620   29.4540 N   0  0  0  0  0  0  0  0  0  0  0  0
   -8.6120  -42.8140   28.7900 C   0  0  0  0  0  0  0  0  0  0  0  0
  -17.5339  -42.2902   26.3296 H   0  0  0  0  0  0  0  0  0  0  0  0
  -17.0325  -41.5451   24.7739 H   0  0  0  0  0  0  0  0  0  0  0  0
  -18.0317  -43.0378   24.7739 H   0  0  0  0  0  0  0  0  0  0  0  0
  -15.6090  -43.5720   24.4210 H   0  0  0  0  0  0  0  0  0  0  0  0
  -12.9693  -41.9644   26.3360 H   0  0  0  0  0  0  0  0  0  0  0  0
  -11.0021  -41.4580   27.8030 H   0  0  0  0  0  0  0  0  0  0  0  0
  -13.0202  -46.0578   27.7723 H   0  0  0  0  0  0  0  0  0  0  0  0
   -9.6242  -47.5404   29.3842 H   0  0  0  0  0  0  0  0  0  0  0  0
  -10.7985  -47.2968   28.0469 H   0  0  0  0  0  0  0  0  0  0  0  0
   -9.2396  -46.4044   28.0469 H   0  0  0  0  0  0  0  0  0  0  0  0
  -12.5513  -46.3715   30.3604 H   0  0  0  0  0  0  0  0  0  0  0  0
  -11.1229  -47.1036   31.0743 H   0  0  0  0  0  0  0  0  0  0  0  0
  -12.1480  -44.2132   31.3562 H   0  0  0  0  0  0  0  0  0  0  0  0
  -11.7350  -45.3021   32.6619 H   0  0  0  0  0  0  0  0  0  0  0  0
   -9.4430  -45.2410   32.0160 H   0  0  0  0  0  0  0  0  0  0  0  0
   -9.7877  -43.3515   33.2647 H   0  0  0  0  0  0  0  0  0  0  0  0
   -8.7766  -42.8652   31.8619 H   0  0  0  0  0  0  0  0  0  0  0  0
  -10.5390  -42.5181   31.8619 H   0  0  0  0  0  0  0  0  0  0  0  0
   -8.6228  -45.0368   29.9020 H   0  0  0  0  0  0  0  0  0  0  0  0
   -7.8888  -42.4801   29.5486 H   0  0  0  0  0  0  0  0  0  0  0  0
   -8.1519  -43.5908   28.1616 H   0  0  0  0  0  0  0  0  0  0  0  0
   -8.9048  -41.9600   28.1616 H   0  0  0  0  0  0  0  0  0  0  0  0
  1  2  1  0
  2  3  1  0
  3  4  2  0
  3  5  1  0
  5  6  1  0
  6  7  1  0
  7  8  2  0
  8  9  1  0
  9 10  2  0
 10 11  1  0
 10 12  1  0
 12 13  1  6
 12 14  1  0
 14 15  1  0
 15 16  1  0
 16 17  1  0
 16 18  1  0
 18 19  1  0
 19 20  1  0
 11  6  2  0
 18 12  1  0
 19  9  1  0
  1 21  1  0
  1 22  1  0
  1 23  1  0
  2 24  1  0
  7 25  1  0
  8 26  1  0
 11 27  1  0
 13 28  1  0
 13 29  1  0
 13 30  1  0
 14 31  1  0
 14 32  1  0
 15 33  1  0
 15 34  1  0
 16 35  1  0
 17 36  1  0
 17 37  1  0
 17 38  1  0
 18 39  1  1
 20 40  1  0
 20 41  1  0
 20 42  1  0
M  CHG  1  16   1
M  END
>  <meeko>  (1) 
{"is_sidechain": false}

>  <vina_kcal_mol>  (1) 
-8.896

$$$$
