galantamina
     RDKit          3D

 43 46  0  0  0  0  0  0  0  0999 V2000
  -15.0020  -41.8360   33.3070 C   0  0  0  0  0  0  0  0  0  0  0  0
  -14.2170  -42.9790   33.6210 O   0  0  0  0  0  0  0  0  0  0  0  0
  -12.9740  -43.0570   33.0690 C   0  0  0  0  0  0  0  0  0  0  0  0
  -11.8450  -42.3500   33.4810 C   0  0  0  0  0  0  0  0  0  0  0  0
  -10.5950  -42.5870   32.8800 C   0  0  0  0  0  0  0  0  0  0  0  0
  -10.4570  -43.5060   31.8260 C   0  0  0  0  0  0  0  0  0  0  0  0
  -11.6090  -44.1160   31.3440 C   0  0  0  0  0  0  0  0  0  0  0  0
  -12.8170  -43.9400   32.0080 C   0  0  0  0  0  0  0  0  0  0  0  0
  -13.8050  -44.7930   31.5840 O   0  0  0  0  0  0  0  0  0  0  0  0
  -13.3170  -45.3550   30.3440 C   0  0  1  0  0  0  0  0  0  0  0  0
  -14.1350  -44.6920   29.2300 C   0  0  0  0  0  0  0  0  0  0  0  0
  -13.5760  -44.9960   27.8510 C   0  0  1  0  0  0  0  0  0  0  0  0
  -14.2120  -44.1720   26.8890 O   0  0  0  0  0  0  0  0  0  0  0  0
  -12.1180  -44.6760   27.8030 C   0  0  0  0  0  0  0  0  0  0  0  0
  -11.3190  -44.6860   28.8810 C   0  0  0  0  0  0  0  0  0  0  0  0
  -11.7620  -45.1400   30.2590 C   0  0  1  0  0  0  0  0  0  0  0  0
  -11.0010  -46.4150   30.6940 C   0  0  0  0  0  0  0  0  0  0  0  0
   -9.4650  -46.3540   30.6400 C   0  0  0  0  0  0  0  0  0  0  0  0
   -8.8480  -45.3960   31.6360 N   0  0  0  0  0  0  0  0  0  0  0  0
   -7.3760  -45.6660   31.8020 C   0  0  0  0  0  0  0  0  0  0  0  0
   -9.0990  -43.9250   31.3490 C   0  0  0  0  0  0  0  0  0  0  0  0
  -15.3341  -41.3524   34.2375 H   0  0  0  0  0  0  0  0  0  0  0  0
  -14.3993  -41.1271   32.7203 H   0  0  0  0  0  0  0  0  0  0  0  0
  -15.8800  -42.1441   32.7203 H   0  0  0  0  0  0  0  0  0  0  0  0
  -11.9322  -41.6012   34.2820 H   0  0  0  0  0  0  0  0  0  0  0  0
   -9.7099  -42.0431   33.2417 H   0  0  0  0  0  0  0  0  0  0  0  0
  -13.4511  -46.4433   30.2570 H   0  0  0  0  0  0  0  0  0  0  0  0
  -15.1698  -45.0613   29.2823 H   0  0  0  0  0  0  0  0  0  0  0  0
  -14.0911  -43.6032   29.3803 H   0  0  0  0  0  0  0  0  0  0  0  0
  -13.7467  -46.0620   27.6400 H   0  0  0  0  0  0  0  0  0  0  0  0
  -14.4330  -43.3260   27.3150 H   0  0  0  0  0  0  0  0  0  0  0  0
  -11.6745  -44.4178   26.8300 H   0  0  0  0  0  0  0  0  0  0  0  0
  -10.2806  -44.3445   28.7581 H   0  0  0  0  0  0  0  0  0  0  0  0
  -11.2896  -46.6378   31.7318 H   0  0  0  0  0  0  0  0  0  0  0  0
  -11.2859  -47.1858   29.9628 H   0  0  0  0  0  0  0  0  0  0  0  0
   -9.0722  -47.3616   30.8413 H   0  0  0  0  0  0  0  0  0  0  0  0
   -9.1978  -45.9853   29.6387 H   0  0  0  0  0  0  0  0  0  0  0  0
   -9.2800  -45.5840   32.5520 H   0  0  0  0  0  0  0  0  0  0  0  0
   -7.1300  -45.7111   32.8732 H   0  0  0  0  0  0  0  0  0  0  0  0
   -7.1234  -46.6255   31.3270 H   0  0  0  0  0  0  0  0  0  0  0  0
   -6.7993  -44.8587   31.3270 H   0  0  0  0  0  0  0  0  0  0  0  0
   -8.3358  -43.3232   31.8641 H   0  0  0  0  0  0  0  0  0  0  0  0
   -9.0467  -43.7674   30.2616 H   0  0  0  0  0  0  0  0  0  0  0  0
  1  2  1  0
  2  3  1  0
  3  4  1  0
  4  5  2  0
  5  6  1  0
  6  7  2  0
  7  8  1  0
  8  9  1  0
  9 10  1  0
 10 11  1  0
 11 12  1  0
 12 13  1  0
 12 14  1  0
 14 15  2  0
 15 16  1  0
 16 17  1  1
 17 18  1  0
 18 19  1  0
 19 20  1  0
 19 21  1  0
  8  3  2  0
 16 10  1  0
 21  6  1  0
 16  7  1  0
  1 22  1  0
  1 23  1  0
  1 24  1  0
  4 25  1  0
  5 26  1  0
 10 27  1  1
 11 28  1  0
 11 29  1  0
 12 30  1  6
 13 31  1  0
 14 32  1  0
 15 33  1  0
 17 34  1  0
 17 35  1  0
 18 36  1  0
 18 37  1  0
 19 38  1  0
 20 39  1  0
 20 40  1  0
 20 41  1  0
 21 42  1  0
 21 43  1  0
M  CHG  1  19   1
M  END
>  <meeko>  (1) 
{"is_sidechain": false}

>  <vina_kcal_mol>  (1) 
-7.225

$$$$
