neostigmina
     RDKit          3D

 35 35  0  0  0  0  0  0  0  0999 V2000
  -15.6160  -42.6720   24.0160 C   0  0  0  0  0  0  0  0  0  0  0  0
  -16.2010  -42.7650   25.3450 N   0  0  0  0  0  0  0  0  0  0  0  0
  -17.6380  -42.5740   25.4360 C   0  0  0  0  0  0  0  0  0  0  0  0
  -15.4430  -42.7170   26.5050 C   0  0  0  0  0  0  0  0  0  0  0  0
  -15.9210  -42.6560   27.6340 O   0  0  0  0  0  0  0  0  0  0  0  0
  -14.0670  -42.7560   26.2530 O   0  0  0  0  0  0  0  0  0  0  0  0
  -13.3050  -43.7540   26.8880 C   0  0  0  0  0  0  0  0  0  0  0  0
  -13.6650  -45.0720   26.6350 C   0  0  0  0  0  0  0  0  0  0  0  0
  -12.9530  -46.0970   27.2480 C   0  0  0  0  0  0  0  0  0  0  0  0
  -11.8880  -45.7940   28.1040 C   0  0  0  0  0  0  0  0  0  0  0  0
  -11.5260  -44.4600   28.3730 C   0  0  0  0  0  0  0  0  0  0  0  0
  -10.3450  -44.1770   29.2890 N   0  0  0  0  0  0  0  0  0  0  0  0
  -10.7390  -43.3300   30.4990 C   0  0  0  0  0  0  0  0  0  0  0  0
   -9.7870  -45.5000   29.7950 C   0  0  0  0  0  0  0  0  0  0  0  0
   -9.2940  -43.3950   28.5060 C   0  0  0  0  0  0  0  0  0  0  0  0
  -12.2700  -43.4390   27.7750 C   0  0  0  0  0  0  0  0  0  0  0  0
  -14.5331  -42.4998   24.1033 H   0  0  0  0  0  0  0  0  0  0  0  0
  -15.7953  -43.6099   23.4700 H   0  0  0  0  0  0  0  0  0  0  0  0
  -16.0773  -41.8359   23.4700 H   0  0  0  0  0  0  0  0  0  0  0  0
  -17.9363  -42.5343   26.4940 H   0  0  0  0  0  0  0  0  0  0  0  0
  -17.9146  -41.6312   24.9414 H   0  0  0  0  0  0  0  0  0  0  0  0
  -18.1513  -43.4118   24.9414 H   0  0  0  0  0  0  0  0  0  0  0  0
  -14.5019  -45.3014   25.9590 H   0  0  0  0  0  0  0  0  0  0  0  0
  -13.2267  -47.1457   27.0602 H   0  0  0  0  0  0  0  0  0  0  0  0
  -11.3237  -46.6124   28.5750 H   0  0  0  0  0  0  0  0  0  0  0  0
  -10.4873  -43.8712   31.4230 H   0  0  0  0  0  0  0  0  0  0  0  0
  -10.1923  -42.3759   30.4724 H   0  0  0  0  0  0  0  0  0  0  0  0
  -11.8210  -43.1335   30.4724 H   0  0  0  0  0  0  0  0  0  0  0  0
   -9.7866  -45.5010   30.8950 H   0  0  0  0  0  0  0  0  0  0  0  0
  -10.4132  -46.3265   29.4278 H   0  0  0  0  0  0  0  0  0  0  0  0
   -8.7581  -45.6284   29.4278 H   0  0  0  0  0  0  0  0  0  0  0  0
   -8.6146  -42.8895   29.2081 H   0  0  0  0  0  0  0  0  0  0  0  0
   -8.7188  -44.0865   27.8728 H   0  0  0  0  0  0  0  0  0  0  0  0
   -9.7911  -42.6454   27.8728 H   0  0  0  0  0  0  0  0  0  0  0  0
  -12.0416  -42.3872   28.0019 H   0  0  0  0  0  0  0  0  0  0  0  0
  1  2  1  0
  2  3  1  0
  2  4  1  0
  4  5  2  0
  4  6  1  0
  6  7  1  0
  7  8  1  0
  8  9  2  0
  9 10  1  0
 10 11  2  0
 11 12  1  0
 12 13  1  0
 12 14  1  0
 12 15  1  0
 11 16  1  0
 16  7  2  0
  1 17  1  0
  1 18  1  0
  1 19  1  0
  3 20  1  0
  3 21  1  0
  3 22  1  0
  8 23  1  0
  9 24  1  0
 10 25  1  0
 13 26  1  0
 13 27  1  0
 13 28  1  0
 14 29  1  0
 14 30  1  0
 14 31  1  0
 15 32  1  0
 15 33  1  0
 15 34  1  0
 16 35  1  0
M  CHG  1  12   1
M  END
>  <meeko>  (1) 
{"is_sidechain": false}

>  <vina_kcal_mol>  (1) 
-7.338

$$$$
