piridostigmina
     RDKit          3D

 26 26  0  0  0  0  0  0  0  0999 V2000
  -14.7280  -43.9420   24.8240 C   0  0  0  0  0  0  0  0  0  0  0  0
  -15.0640  -43.5950   26.1970 N   0  0  0  0  0  0  0  0  0  0  0  0
  -16.1950  -42.7010   26.3790 C   0  0  0  0  0  0  0  0  0  0  0  0
  -14.5460  -44.2580   27.2940 C   0  0  0  0  0  0  0  0  0  0  0  0
  -14.9010  -44.0640   28.4540 O   0  0  0  0  0  0  0  0  0  0  0  0
  -13.5520  -45.1820   26.9570 O   0  0  0  0  0  0  0  0  0  0  0  0
  -12.3540  -45.1520   27.6900 C   0  0  0  0  0  0  0  0  0  0  0  0
  -11.7840  -46.3740   28.0170 C   0  0  0  0  0  0  0  0  0  0  0  0
  -10.5950  -46.3890   28.7370 C   0  0  0  0  0  0  0  0  0  0  0  0
   -9.9980  -45.1860   29.1040 C   0  0  0  0  0  0  0  0  0  0  0  0
  -10.5580  -44.0050   28.7520 N   0  0  0  0  0  0  0  0  0  0  0  0
   -9.9310  -42.7370   29.1580 C   0  0  0  0  0  0  0  0  0  0  0  0
  -11.7140  -43.9670   28.0470 C   0  0  0  0  0  0  0  0  0  0  0  0
  -13.9628  -44.7322   24.8223 H   0  0  0  0  0  0  0  0  0  0  0  0
  -15.6289  -44.3028   24.3060 H   0  0  0  0  0  0  0  0  0  0  0  0
  -14.3384  -43.0532   24.3060 H   0  0  0  0  0  0  0  0  0  0  0  0
  -16.3785  -42.5560   27.4538 H   0  0  0  0  0  0  0  0  0  0  0  0
  -15.9744  -41.7305   25.9105 H   0  0  0  0  0  0  0  0  0  0  0  0
  -17.0883  -43.1397   25.9105 H   0  0  0  0  0  0  0  0  0  0  0  0
  -12.2649  -47.3150   27.7117 H   0  0  0  0  0  0  0  0  0  0  0  0
  -10.1286  -47.3456   29.0151 H   0  0  0  0  0  0  0  0  0  0  0  0
   -9.0638  -45.1953   29.6846 H   0  0  0  0  0  0  0  0  0  0  0  0
   -9.9016  -42.6775   30.2560 H   0  0  0  0  0  0  0  0  0  0  0  0
   -8.9063  -42.6909   28.7607 H   0  0  0  0  0  0  0  0  0  0  0  0
  -10.5165  -41.8947   28.7607 H   0  0  0  0  0  0  0  0  0  0  0  0
  -12.1481  -42.9991   27.7559 H   0  0  0  0  0  0  0  0  0  0  0  0
  1  2  1  0
  2  3  1  0
  2  4  1  0
  4  5  2  0
  4  6  1  0
  6  7  1  0
  7  8  1  0
  8  9  2  0
  9 10  1  0
 10 11  2  0
 11 12  1  0
 11 13  1  0
 13  7  2  0
  1 14  1  0
  1 15  1  0
  1 16  1  0
  3 17  1  0
  3 18  1  0
  3 19  1  0
  8 20  1  0
  9 21  1  0
 10 22  1  0
 12 23  1  0
 12 24  1  0
 12 25  1  0
 13 26  1  0
M  CHG  1  11   1
M  END
>  <meeko>  (1) 
{"is_sidechain": false}

>  <vina_kcal_mol>  (1) 
-6.425

$$$$
