rivastigmina
     RDKit          3D

 41 41  0  0  0  0  0  0  0  0999 V2000
  -14.9160  -44.0860   23.8230 C   0  0  0  0  0  0  0  0  0  0  0  0
  -14.9730  -42.7760   24.5920 C   0  0  0  0  0  0  0  0  0  0  0  0
  -15.7450  -42.8970   25.8270 N   0  0  0  0  0  0  0  0  0  0  0  0
  -17.1720  -42.6320   25.7490 C   0  0  0  0  0  0  0  0  0  0  0  0
  -15.1550  -43.0940   27.0680 C   0  0  0  0  0  0  0  0  0  0  0  0
  -15.7880  -43.2570   28.1070 O   0  0  0  0  0  0  0  0  0  0  0  0
  -13.7590  -43.0720   27.0050 O   0  0  0  0  0  0  0  0  0  0  0  0
  -13.0200  -44.1920   27.4270 C   0  0  0  0  0  0  0  0  0  0  0  0
  -13.3550  -45.4100   26.8430 C   0  0  0  0  0  0  0  0  0  0  0  0
  -12.6490  -46.5560   27.2010 C   0  0  0  0  0  0  0  0  0  0  0  0
  -11.6120  -46.4770   28.1340 C   0  0  0  0  0  0  0  0  0  0  0  0
  -11.2570  -45.2460   28.7220 C   0  0  0  0  0  0  0  0  0  0  0  0
  -10.1190  -45.2040   29.7270 C   0  0  2  0  0  0  0  0  0  0  0  0
  -10.2640  -46.1500   30.9240 C   0  0  0  0  0  0  0  0  0  0  0  0
   -9.8320  -43.7720   30.1770 N   0  0  0  0  0  0  0  0  0  0  0  0
   -9.7870  -43.5570   31.6630 C   0  0  0  0  0  0  0  0  0  0  0  0
   -8.6430  -43.1590   29.4910 C   0  0  0  0  0  0  0  0  0  0  0  0
  -11.9630  -44.0970   28.3350 C   0  0  0  0  0  0  0  0  0  0  0  0
  -14.8794  -44.9261   24.5321 H   0  0  0  0  0  0  0  0  0  0  0  0
  -15.8110  -44.1790   23.1902 H   0  0  0  0  0  0  0  0  0  0  0  0
  -14.0164  -44.1009   23.1902 H   0  0  0  0  0  0  0  0  0  0  0  0
  -13.9476  -42.4673   24.8434 H   0  0  0  0  0  0  0  0  0  0  0  0
  -15.4691  -42.0298   23.9540 H   0  0  0  0  0  0  0  0  0  0  0  0
  -17.5867  -42.5550   26.7649 H   0  0  0  0  0  0  0  0  0  0  0  0
  -17.3406  -41.6872   25.2115 H   0  0  0  0  0  0  0  0  0  0  0  0
  -17.6686  -43.4533   25.2115 H   0  0  0  0  0  0  0  0  0  0  0  0
  -14.1694  -45.4671   26.1058 H   0  0  0  0  0  0  0  0  0  0  0  0
  -12.9082  -47.5246   26.7486 H   0  0  0  0  0  0  0  0  0  0  0  0
  -11.0644  -47.3890   28.4139 H   0  0  0  0  0  0  0  0  0  0  0  0
   -9.2483  -45.5917   29.1778 H   0  0  0  0  0  0  0  0  0  0  0  0
  -10.1760  -45.5757   31.8580 H   0  0  0  0  0  0  0  0  0  0  0  0
  -11.2478  -46.6406   30.8866 H   0  0  0  0  0  0  0  0  0  0  0  0
   -9.4723  -46.9127   30.8866 H   0  0  0  0  0  0  0  0  0  0  0  0
  -10.6490  -43.2370   29.8530 H   0  0  0  0  0  0  0  0  0  0  0  0
   -9.9862  -44.5087   32.1774 H   0  0  0  0  0  0  0  0  0  0  0  0
   -8.7918  -43.1864   31.9499 H   0  0  0  0  0  0  0  0  0  0  0  0
  -10.5500  -42.8184   31.9499 H   0  0  0  0  0  0  0  0  0  0  0  0
   -7.9324  -42.7926   30.2465 H   0  0  0  0  0  0  0  0  0  0  0  0
   -8.1517  -43.9162   28.8623 H   0  0  0  0  0  0  0  0  0  0  0  0
   -8.9749  -42.3196   28.8623 H   0  0  0  0  0  0  0  0  0  0  0  0
  -11.6828  -43.1170   28.7485 H   0  0  0  0  0  0  0  0  0  0  0  0
  1  2  1  0
  2  3  1  0
  3  4  1  0
  3  5  1  0
  5  6  2  0
  5  7  1  0
  7  8  1  0
  8  9  1  0
  9 10  2  0
 10 11  1  0
 11 12  2  0
 12 13  1  0
 13 14  1  0
 13 15  1  0
 15 16  1  0
 15 17  1  0
 12 18  1  0
 18  8  2  0
  1 19  1  0
  1 20  1  0
  1 21  1  0
  2 22  1  0
  2 23  1  0
  4 24  1  0
  4 25  1  0
  4 26  1  0
  9 27  1  0
 10 28  1  0
 11 29  1  0
 13 30  1  6
 14 31  1  0
 14 32  1  0
 14 33  1  0
 15 34  1  0
 16 35  1  0
 16 36  1  0
 16 37  1  0
 17 38  1  0
 17 39  1  0
 17 40  1  0
 18 41  1  0
M  CHG  1  15   1
M  END
>  <meeko>  (1) 
{"is_sidechain": false}

>  <vina_kcal_mol>  (1) 
-7.814

$$$$
