tacrina
     RDKit          3D

 29 31  0  0  0  0  0  0  0  0999 V2000
  -17.7510  -42.5470   22.6770 N   0  0  0  0  0  0  0  0  0  0  0  0
  -17.6950  -42.4090   24.0910 C   0  0  0  0  0  0  0  0  0  0  0  0
  -16.5640  -42.9080   24.7620 C   0  0  0  0  0  0  0  0  0  0  0  0
  -16.5510  -42.8370   26.1550 C   0  0  0  0  0  0  0  0  0  0  0  0
  -17.5980  -42.3820   26.8800 N   0  0  0  0  0  0  0  0  0  0  0  0
  -18.7030  -41.9750   26.2410 C   0  0  0  0  0  0  0  0  0  0  0  0
  -19.7760  -41.5440   27.0110 C   0  0  0  0  0  0  0  0  0  0  0  0
  -20.9760  -41.1210   26.4390 C   0  0  0  0  0  0  0  0  0  0  0  0
  -21.1160  -41.1290   25.0590 C   0  0  0  0  0  0  0  0  0  0  0  0
  -20.0510  -41.5550   24.2630 C   0  0  0  0  0  0  0  0  0  0  0  0
  -18.8240  -41.9790   24.8360 C   0  0  0  0  0  0  0  0  0  0  0  0
  -15.3750  -43.3250   26.9610 C   0  0  0  0  0  0  0  0  0  0  0  0
  -14.0870  -43.4210   26.1510 C   0  0  0  0  0  0  0  0  0  0  0  0
  -14.3490  -44.1650   24.8500 C   0  0  0  0  0  0  0  0  0  0  0  0
  -15.3620  -43.4070   23.9930 C   0  0  0  0  0  0  0  0  0  0  0  0
  -18.5120  -42.0190   22.2640 H   0  0  0  0  0  0  0  0  0  0  0  0
  -17.8430  -43.5310   22.4300 H   0  0  0  0  0  0  0  0  0  0  0  0
  -19.6762  -41.5360   28.1064 H   0  0  0  0  0  0  0  0  0  0  0  0
  -21.8054  -40.7835   27.0779 H   0  0  0  0  0  0  0  0  0  0  0  0
  -22.0586  -40.8023   24.5955 H   0  0  0  0  0  0  0  0  0  0  0  0
  -20.1654  -41.5621   23.1690 H   0  0  0  0  0  0  0  0  0  0  0  0
  -15.2110  -42.6283   27.7963 H   0  0  0  0  0  0  0  0  0  0  0  0
  -15.6173  -44.3399   27.3092 H   0  0  0  0  0  0  0  0  0  0  0  0
  -13.7216  -42.4083   25.9251 H   0  0  0  0  0  0  0  0  0  0  0  0
  -13.3312  -43.9667   26.7349 H   0  0  0  0  0  0  0  0  0  0  0  0
  -13.4055  -44.2631   24.2930 H   0  0  0  0  0  0  0  0  0  0  0  0
  -14.7564  -45.1593   25.0853 H   0  0  0  0  0  0  0  0  0  0  0  0
  -14.8551  -42.5408   23.5426 H   0  0  0  0  0  0  0  0  0  0  0  0
  -15.7368  -44.1159   23.2400 H   0  0  0  0  0  0  0  0  0  0  0  0
  1  2  1  0
  2  3  2  0
  3  4  1  0
  4  5  2  0
  5  6  1  0
  6  7  2  0
  7  8  1  0
  8  9  2  0
  9 10  1  0
 10 11  2  0
  4 12  1  0
 12 13  1  0
 13 14  1  0
 14 15  1  0
 11  2  1  0
 15  3  1  0
 11  6  1  0
  1 16  1  0
  1 17  1  0
  7 18  1  0
  8 19  1  0
  9 20  1  0
 10 21  1  0
 12 22  1  0
 12 23  1  0
 13 24  1  0
 13 25  1  0
 14 26  1  0
 14 27  1  0
 15 28  1  0
 15 29  1  0
M  END
>  <meeko>  (1) 
{"is_sidechain": false}

>  <vina_kcal_mol>  (1) 
-8.629

$$$$
