acetazolamida
     RDKit          3D

 19 19  0  0  0  0  0  0  0  0999 V2000
   -6.2290    1.9060   18.4230 C   0  0  0  0  0  0  0  0  0  0  0  0
   -6.1270    1.2990   17.0440 C   0  0  0  0  0  0  0  0  0  0  0  0
   -6.8590    0.3710   16.7200 O   0  0  0  0  0  0  0  0  0  0  0  0
   -5.1820    1.9220   16.2640 N   0  0  0  0  0  0  0  0  0  0  0  0
   -4.8500    1.6120   14.9690 C   0  0  0  0  0  0  0  0  0  0  0  0
   -4.3110    0.4530   14.6470 N   0  0  0  0  0  0  0  0  0  0  0  0
   -4.0590    0.3540   13.2910 N   0  0  0  0  0  0  0  0  0  0  0  0
   -4.4270    1.4540   12.6660 C   0  0  0  0  0  0  0  0  0  0  0  0
   -4.2800    1.7330   10.9350 S   0  0  0  0  0  0  0  0  0  0  0  0
   -5.0010    0.4230   10.1450 N   0  0  0  0  0  0  0  0  0  0  0  0
   -5.0960    2.8890   10.6460 O   0  0  0  0  0  0  0  0  0  0  0  0
   -2.8670    1.6660   10.6390 O   0  0  0  0  0  0  0  0  0  0  0  0
   -5.0940    2.6680   13.6510 S   0  0  0  0  0  0  0  0  0  0  0  0
   -6.0968    1.1194   19.1805 H   0  0  0  0  0  0  0  0  0  0  0  0
   -5.4465    2.6692   18.5465 H   0  0  0  0  0  0  0  0  0  0  0  0
   -7.2180    2.3715   18.5465 H   0  0  0  0  0  0  0  0  0  0  0  0
   -4.6570    2.7000   16.6390 H   0  0  0  0  0  0  0  0  0  0  0  0
   -6.0060    0.5590   10.0410 H   0  0  0  0  0  0  0  0  0  0  0  0
   -4.7490   -0.4610   10.5880 H   0  0  0  0  0  0  0  0  0  0  0  0
  1  2  1  0
  2  3  2  0
  2  4  1  0
  4  5  1  0
  5  6  2  0
  6  7  1  0
  7  8  2  0
  8  9  1  0
  9 10  1  0
  9 11  2  0
  9 12  2  0
  8 13  1  0
 13  5  1  0
  1 14  1  0
  1 15  1  0
  1 16  1  0
  4 17  1  0
 10 18  1  0
 10 19  1  0
M  END
>  <meeko>  (1) 
{"is_sidechain": false}

>  <vina_kcal_mol>  (1) 
-6.663

$$$$
