brinzolamida
     RDKit          3D

 45 46  0  0  0  0  0  0  0  0999 V2000
   -1.6050    8.5260   15.5620 C   0  0  0  0  0  0  0  0  0  0  0  0
   -1.8370    7.8600   14.2200 C   0  0  0  0  0  0  0  0  0  0  0  0
   -2.5220    6.5490   14.4460 N   0  0  0  0  0  0  0  0  0  0  0  0
   -3.2530    5.9690   13.2630 C   0  0  1  0  0  0  0  0  0  0  0  0
   -2.3670    6.0360   11.9540 C   0  0  0  0  0  0  0  0  0  0  0  0
   -2.8650    5.2840   10.7650 N   0  0  0  0  0  0  0  0  0  0  0  0
   -2.0850    5.3460    9.5120 C   0  0  0  0  0  0  0  0  0  0  0  0
   -0.7460    4.6290    9.6170 C   0  0  0  0  0  0  0  0  0  0  0  0
   -0.8700    3.1110    9.6060 C   0  0  0  0  0  0  0  0  0  0  0  0
   -1.0190    2.6830   10.9590 O   0  0  0  0  0  0  0  0  0  0  0  0
   -1.4320    1.3230   11.0360 C   0  0  0  0  0  0  0  0  0  0  0  0
   -4.2930    4.3810   10.8200 S   0  0  0  0  0  0  0  0  0  0  0  0
   -5.3800    5.3300   10.8270 O   0  0  0  0  0  0  0  0  0  0  0  0
   -4.1930    3.2380    9.9540 O   0  0  0  0  0  0  0  0  0  0  0  0
   -4.2320    3.8140   12.4980 C   0  0  0  0  0  0  0  0  0  0  0  0
   -4.7950    2.2870   12.9330 S   0  0  0  0  0  0  0  0  0  0  0  0
   -4.3570    2.5490   14.5680 C   0  0  0  0  0  0  0  0  0  0  0  0
   -4.6960    1.2250   15.7070 S   0  0  0  0  0  0  0  0  0  0  0  0
   -4.7470   -0.2190   14.8640 N   0  0  0  0  0  0  0  0  0  0  0  0
   -3.5260    1.1850   16.5530 O   0  0  0  0  0  0  0  0  0  0  0  0
   -6.0200    1.4860   16.2130 O   0  0  0  0  0  0  0  0  0  0  0  0
   -3.8030    3.8080   14.7610 C   0  0  0  0  0  0  0  0  0  0  0  0
   -3.7300    4.5600   13.5490 C   0  0  0  0  0  0  0  0  0  0  0  0
   -1.8509    7.8201   16.3690 H   0  0  0  0  0  0  0  0  0  0  0  0
   -0.5497    8.8251   15.6454 H   0  0  0  0  0  0  0  0  0  0  0  0
   -2.2460    9.4160   15.6454 H   0  0  0  0  0  0  0  0  0  0  0  0
   -2.4694    8.5044   13.5916 H   0  0  0  0  0  0  0  0  0  0  0  0
   -0.8752    7.6971   13.7116 H   0  0  0  0  0  0  0  0  0  0  0  0
   -1.8550    5.8570   14.8150 H   0  0  0  0  0  0  0  0  0  0  0  0
   -3.2180    6.6910   15.1900 H   0  0  0  0  0  0  0  0  0  0  0  0
   -4.1469    6.5845   13.0836 H   0  0  0  0  0  0  0  0  0  0  0  0
   -2.2788    7.0939   11.6657 H   0  0  0  0  0  0  0  0  0  0  0  0
   -1.4174    5.5510   12.2242 H   0  0  0  0  0  0  0  0  0  0  0  0
   -2.6725    4.8782    8.7083 H   0  0  0  0  0  0  0  0  0  0  0  0
   -1.8787    6.4057    9.3013 H   0  0  0  0  0  0  0  0  0  0  0  0
   -0.1196    4.9338    8.7657 H   0  0  0  0  0  0  0  0  0  0  0  0
   -0.3014    4.9114   10.5827 H   0  0  0  0  0  0  0  0  0  0  0  0
   -1.7496    2.8103    9.0179 H   0  0  0  0  0  0  0  0  0  0  0  0
    0.0203    2.6529    9.1506 H   0  0  0  0  0  0  0  0  0  0  0  0
   -1.5221    1.0264   12.0914 H   0  0  0  0  0  0  0  0  0  0  0  0
   -2.4059    1.2068   10.5380 H   0  0  0  0  0  0  0  0  0  0  0  0
   -0.6871    0.6848   10.5380 H   0  0  0  0  0  0  0  0  0  0  0  0
   -5.0280   -0.0470   13.8950 H   0  0  0  0  0  0  0  0  0  0  0  0
   -3.8330   -0.6780   14.9070 H   0  0  0  0  0  0  0  0  0  0  0  0
   -3.4596    4.1832   15.7363 H   0  0  0  0  0  0  0  0  0  0  0  0
  1  2  1  0
  2  3  1  0
  3  4  1  0
  4  5  1  0
  5  6  1  0
  6  7  1  0
  7  8  1  0
  8  9  1  0
  9 10  1  0
 10 11  1  0
  6 12  1  0
 12 13  2  0
 12 14  2  0
 12 15  1  0
 15 16  1  0
 16 17  1  0
 17 18  1  0
 18 19  1  0
 18 20  2  0
 18 21  2  0
 17 22  2  0
 22 23  1  0
 23  4  1  0
 23 15  2  0
  1 24  1  0
  1 25  1  0
  1 26  1  0
  2 27  1  0
  2 28  1  0
  3 29  1  0
  3 30  1  0
  4 31  1  6
  5 32  1  0
  5 33  1  0
  7 34  1  0
  7 35  1  0
  8 36  1  0
  8 37  1  0
  9 38  1  0
  9 39  1  0
 11 40  1  0
 11 41  1  0
 11 42  1  0
 19 43  1  0
 19 44  1  0
 22 45  1  0
M  CHG  1   3   1
M  END
>  <meeko>  (1) 
{"is_sidechain": false}

>  <vina_kcal_mol>  (1) 
-6.904

$$$$
