diclorfenamida
     RDKit          3D

 22 22  0  0  0  0  0  0  0  0999 V2000
   -5.0100    0.0780    9.6200 N   0  0  0  0  0  0  0  0  0  0  0  0
   -3.7360   -0.0730   10.6980 S   0  0  0  0  0  0  0  0  0  0  0  0
   -3.8680   -1.3640   11.3260 O   0  0  0  0  0  0  0  0  0  0  0  0
   -2.5540    0.3320    9.9760 O   0  0  0  0  0  0  0  0  0  0  0  0
   -4.1280    1.1670   11.8980 C   0  0  0  0  0  0  0  0  0  0  0  0
   -4.3110    2.4910   11.5020 C   0  0  0  0  0  0  0  0  0  0  0  0
   -4.6060    3.4620   12.4640 C   0  0  0  0  0  0  0  0  0  0  0  0
   -4.8070    5.0840   11.8900 Cl  0  0  0  0  0  0  0  0  0  0  0  0
   -4.7230    3.1240   13.8260 C   0  0  0  0  0  0  0  0  0  0  0  0
   -5.0520    4.3680   14.9880 Cl  0  0  0  0  0  0  0  0  0  0  0  0
   -4.5340    1.7870   14.2050 C   0  0  0  0  0  0  0  0  0  0  0  0
   -4.7150    1.2540   15.8860 S   0  0  0  0  0  0  0  0  0  0  0  0
   -4.8760   -0.4150   15.7680 N   0  0  0  0  0  0  0  0  0  0  0  0
   -3.4770    1.5190   16.5780 O   0  0  0  0  0  0  0  0  0  0  0  0
   -5.9790    1.7550   16.3740 O   0  0  0  0  0  0  0  0  0  0  0  0
   -4.2310    0.8080   13.2430 C   0  0  0  0  0  0  0  0  0  0  0  0
   -5.8160   -0.4570    9.9500 H   0  0  0  0  0  0  0  0  0  0  0  0
   -4.7080   -0.1880    8.6820 H   0  0  0  0  0  0  0  0  0  0  0  0
   -4.2241    2.7696   10.4414 H   0  0  0  0  0  0  0  0  0  0  0  0
   -5.8230   -0.7650   15.9040 H   0  0  0  0  0  0  0  0  0  0  0  0
   -4.4820   -0.7260   14.8760 H   0  0  0  0  0  0  0  0  0  0  0  0
   -4.0756   -0.2371   13.5489 H   0  0  0  0  0  0  0  0  0  0  0  0
  1  2  1  0
  2  3  2  0
  2  4  2  0
  2  5  1  0
  5  6  1  0
  6  7  2  0
  7  8  1  0
  7  9  1  0
  9 10  1  0
  9 11  2  0
 11 12  1  0
 12 13  1  0
 12 14  2  0
 12 15  2  0
 11 16  1  0
 16  5  2  0
  1 17  1  0
  1 18  1  0
  6 19  1  0
 13 20  1  0
 13 21  1  0
 16 22  1  0
M  END
>  <meeko>  (1) 
{"is_sidechain": false}

>  <vina_kcal_mol>  (1) 
-7.298

$$$$
