dorzolamida
     RDKit          3D

 36 37  0  0  0  0  0  0  0  0999 V2000
   -3.2740   -1.6040   11.3540 C   0  0  0  0  0  0  0  0  0  0  0  0
   -3.2090   -0.2320   10.7120 C   0  0  0  0  0  0  0  0  0  0  0  0
   -4.1720    0.6760   11.4240 N   0  0  0  0  0  0  0  0  0  0  0  0
   -3.6050    1.8190   12.2260 C   0  0  1  0  0  0  0  0  0  0  0  0
   -3.5350    3.0840   11.3330 C   0  0  0  0  0  0  0  0  0  0  0  0
   -3.1380    4.3930   12.0570 C   0  0  2  0  0  0  0  0  0  0  0  0
   -1.7630    4.3200   12.7110 C   0  0  0  0  0  0  0  0  0  0  0  0
   -4.4280    4.8500   13.2390 S   0  0  0  0  0  0  0  0  0  0  0  0
   -5.6590    5.0640   12.5110 O   0  0  0  0  0  0  0  0  0  0  0  0
   -3.9040    5.7360   14.2480 O   0  0  0  0  0  0  0  0  0  0  0  0
   -4.6690    3.2680   14.0150 C   0  0  0  0  0  0  0  0  0  0  0  0
   -5.4600    3.2260   15.5140 S   0  0  0  0  0  0  0  0  0  0  0  0
   -5.3020    1.5310   15.6120 C   0  0  0  0  0  0  0  0  0  0  0  0
   -5.9510    0.7470   17.0700 S   0  0  0  0  0  0  0  0  0  0  0  0
   -7.6200    0.8640   17.0540 N   0  0  0  0  0  0  0  0  0  0  0  0
   -5.6200   -0.6490   16.8940 O   0  0  0  0  0  0  0  0  0  0  0  0
   -5.4670    1.5360   18.1740 O   0  0  0  0  0  0  0  0  0  0  0  0
   -4.6560    1.0110   14.5020 C   0  0  0  0  0  0  0  0  0  0  0  0
   -4.3090    2.0180   13.5400 C   0  0  0  0  0  0  0  0  0  0  0  0
   -3.2689   -1.4971   12.4488 H   0  0  0  0  0  0  0  0  0  0  0  0
   -4.1972   -2.1126   11.0395 H   0  0  0  0  0  0  0  0  0  0  0  0
   -2.4030   -2.1976   11.0395 H   0  0  0  0  0  0  0  0  0  0  0  0
   -2.1885    0.1695   10.7978 H   0  0  0  0  0  0  0  0  0  0  0  0
   -3.4756   -0.3021    9.6471 H   0  0  0  0  0  0  0  0  0  0  0  0
   -4.8070    1.0740   10.7200 H   0  0  0  0  0  0  0  0  0  0  0  0
   -4.7750    0.1040   12.0310 H   0  0  0  0  0  0  0  0  0  0  0  0
   -2.5760    1.5744   12.5281 H   0  0  0  0  0  0  0  0  0  0  0  0
   -2.7954    2.8981   10.5403 H   0  0  0  0  0  0  0  0  0  0  0  0
   -4.5569    3.2451   10.9592 H   0  0  0  0  0  0  0  0  0  0  0  0
   -3.0542    5.1845   11.2977 H   0  0  0  0  0  0  0  0  0  0  0  0
   -1.8766    4.3260   13.8051 H   0  0  0  0  0  0  0  0  0  0  0  0
   -1.2577    3.3938   12.3999 H   0  0  0  0  0  0  0  0  0  0  0  0
   -1.1625    5.1875   12.3999 H   0  0  0  0  0  0  0  0  0  0  0  0
   -8.0340   -0.0710   16.9990 H   0  0  0  0  0  0  0  0  0  0  0  0
   -7.9220    1.4460   16.2690 H   0  0  0  0  0  0  0  0  0  0  0  0
   -4.4331   -0.0583   14.3721 H   0  0  0  0  0  0  0  0  0  0  0  0
  1  2  1  0
  2  3  1  0
  3  4  1  0
  4  5  1  0
  5  6  1  0
  6  7  1  0
  6  8  1  0
  8  9  2  0
  8 10  2  0
  8 11  1  0
 11 12  1  0
 12 13  1  0
 13 14  1  0
 14 15  1  0
 14 16  2  0
 14 17  2  0
 13 18  2  0
 18 19  1  0
 19  4  1  0
 19 11  2  0
  1 20  1  0
  1 21  1  0
  1 22  1  0
  2 23  1  0
  2 24  1  0
  3 25  1  0
  3 26  1  0
  4 27  1  1
  5 28  1  0
  5 29  1  0
  6 30  1  6
  7 31  1  0
  7 32  1  0
  7 33  1  0
 15 34  1  0
 15 35  1  0
 18 36  1  0
M  CHG  1   3   1
M  END
>  <meeko>  (1) 
{"is_sidechain": false}

>  <vina_kcal_mol>  (1) 
-7.141

$$$$
