furosemida
     RDKit          3D

 31 32  0  0  0  0  0  0  0  0999 V2000
   -5.5480   -0.6200   16.4950 N   0  0  0  0  0  0  0  0  0  0  0  0
   -6.1530    0.8810   16.9790 S   0  0  0  0  0  0  0  0  0  0  0  0
   -5.3900    1.2500   18.1500 O   0  0  0  0  0  0  0  0  0  0  0  0
   -7.5870    0.7050   17.0060 O   0  0  0  0  0  0  0  0  0  0  0  0
   -5.7180    1.9850   15.6730 C   0  0  0  0  0  0  0  0  0  0  0  0
   -4.9050    1.5170   14.6320 C   0  0  0  0  0  0  0  0  0  0  0  0
   -4.5760    2.3250   13.5250 C   0  0  0  0  0  0  0  0  0  0  0  0
   -3.7210    1.7250   12.4200 C   0  0  0  0  0  0  0  0  0  0  0  0
   -2.6290    2.3140   12.1410 O   0  0  0  0  0  0  0  0  0  0  0  0
   -4.1700    0.6770   11.8590 O   0  0  0  0  0  0  0  0  0  0  0  0
   -5.0580    3.6490   13.4970 C   0  0  0  0  0  0  0  0  0  0  0  0
   -4.7480    4.5360   12.4320 N   0  0  0  0  0  0  0  0  0  0  0  0
   -5.1700    5.9140   12.7210 C   0  0  0  0  0  0  0  0  0  0  0  0
   -5.9710    6.5420   11.6280 C   0  0  0  0  0  0  0  0  0  0  0  0
   -7.0160    7.4460   11.6340 C   0  0  0  0  0  0  0  0  0  0  0  0
   -7.3730    7.6550   10.2820 C   0  0  0  0  0  0  0  0  0  0  0  0
   -6.5300    6.8640    9.5370 C   0  0  0  0  0  0  0  0  0  0  0  0
   -5.6780    6.1790   10.3440 O   0  0  0  0  0  0  0  0  0  0  0  0
   -5.8360    4.1240   14.5660 C   0  0  0  0  0  0  0  0  0  0  0  0
   -6.1680    3.3030   15.6520 C   0  0  0  0  0  0  0  0  0  0  0  0
   -7.0760    4.0360   16.9250 Cl  0  0  0  0  0  0  0  0  0  0  0  0
   -5.7300   -1.3150   17.2210 H   0  0  0  0  0  0  0  0  0  0  0  0
   -4.5700   -0.5970   16.2010 H   0  0  0  0  0  0  0  0  0  0  0  0
   -4.5127    0.4905   14.6801 H   0  0  0  0  0  0  0  0  0  0  0  0
   -3.7050    4.5550   12.3910 H   0  0  0  0  0  0  0  0  0  0  0  0
   -5.7799    5.9050   13.6364 H   0  0  0  0  0  0  0  0  0  0  0  0
   -4.2538    6.5128   12.8307 H   0  0  0  0  0  0  0  0  0  0  0  0
   -7.4789    7.9114   12.5167 H   0  0  0  0  0  0  0  0  0  0  0  0
   -8.1654    8.3169    9.9025 H   0  0  0  0  0  0  0  0  0  0  0  0
   -6.5436    6.7953    8.4392 H   0  0  0  0  0  0  0  0  0  0  0  0
   -6.1928    5.1644   14.5502 H   0  0  0  0  0  0  0  0  0  0  0  0
  1  2  1  0
  2  3  2  0
  2  4  2  0
  2  5  1  0
  5  6  2  0
  6  7  1  0
  7  8  1  0
  8  9  2  0
  8 10  1  0
  7 11  2  0
 11 12  1  0
 12 13  1  0
 13 14  1  0
 14 15  2  0
 15 16  1  0
 16 17  2  0
 17 18  1  0
 11 19  1  0
 19 20  2  0
 20 21  1  0
 20  5  1  0
 18 14  1  0
  1 22  1  0
  1 23  1  0
  6 24  1  0
 12 25  1  0
 13 26  1  0
 13 27  1  0
 15 28  1  0
 16 29  1  0
 17 30  1  0
 19 31  1  0
M  CHG  1  10  -1
M  END
>  <meeko>  (1) 
{"is_sidechain": false}

>  <vina_kcal_mol>  (1) 
-7.61

$$$$
