hidroclorotiazida
     RDKit          3D

 25 26  0  0  0  0  0  0  0  0999 V2000
   -2.6790    3.2330   11.5530 N   0  0  0  0  0  0  0  0  0  0  0  0
   -3.9080    4.3680   11.7250 S   0  0  0  0  0  0  0  0  0  0  0  0
   -3.2660    5.6240   12.0340 O   0  0  0  0  0  0  0  0  0  0  0  0
   -4.7850    4.2200   10.5880 O   0  0  0  0  0  0  0  0  0  0  0  0
   -4.7770    3.8290   13.1700 C   0  0  0  0  0  0  0  0  0  0  0  0
   -4.3740    2.6350   13.7810 C   0  0  0  0  0  0  0  0  0  0  0  0
   -5.0220    2.2080   14.9470 C   0  0  0  0  0  0  0  0  0  0  0  0
   -6.0490    2.9430   15.5420 C   0  0  0  0  0  0  0  0  0  0  0  0
   -6.4620    4.1120   14.8860 C   0  0  0  0  0  0  0  0  0  0  0  0
   -5.8270    4.5680   13.7180 C   0  0  0  0  0  0  0  0  0  0  0  0
   -6.4550    6.0150   13.0140 Cl  0  0  0  0  0  0  0  0  0  0  0  0
   -6.7790    2.4910   16.6490 N   0  0  0  0  0  0  0  0  0  0  0  0
   -6.1480    1.5200   17.5130 C   0  0  0  0  0  0  0  0  0  0  0  0
   -5.8010    0.3740   16.7240 N   0  0  0  0  0  0  0  0  0  0  0  0
   -4.5410    0.6760   15.6710 S   0  0  0  0  0  0  0  0  0  0  0  0
   -3.3480    0.9280   16.4460 O   0  0  0  0  0  0  0  0  0  0  0  0
   -4.6090   -0.3390   14.6450 O   0  0  0  0  0  0  0  0  0  0  0  0
   -2.1590    3.1700   12.4320 H   0  0  0  0  0  0  0  0  0  0  0  0
   -2.0650    3.3910   10.7570 H   0  0  0  0  0  0  0  0  0  0  0  0
   -3.5567    2.0385   13.3495 H   0  0  0  0  0  0  0  0  0  0  0  0
   -7.3051    4.6870   15.2965 H   0  0  0  0  0  0  0  0  0  0  0  0
   -7.1950    3.2550   17.1790 H   0  0  0  0  0  0  0  0  0  0  0  0
   -5.2406    1.9531   17.9591 H   0  0  0  0  0  0  0  0  0  0  0  0
   -6.8345    1.2296   18.3220 H   0  0  0  0  0  0  0  0  0  0  0  0
   -6.5830   -0.0770   16.2570 H   0  0  0  0  0  0  0  0  0  0  0  0
  1  2  1  0
  2  3  2  0
  2  4  2  0
  2  5  1  0
  5  6  2  0
  6  7  1  0
  7  8  2  0
  8  9  1  0
  9 10  2  0
 10 11  1  0
  8 12  1  0
 12 13  1  0
 13 14  1  0
 14 15  1  0
 15 16  2  0
 15 17  2  0
 10  5  1  0
 15  7  1  0
  1 18  1  0
  1 19  1  0
  6 20  1  0
  9 21  1  0
 12 22  1  0
 13 23  1  0
 13 24  1  0
 14 25  1  0
M  END
>  <meeko>  (1) 
{"is_sidechain": false}

>  <vina_kcal_mol>  (1) 
-7.673

$$$$
