metazolamida
     RDKit          3D

 22 22  0  0  0  0  0  0  0  0999 V2000
   -4.0040    6.8160   11.4920 C   0  0  0  0  0  0  0  0  0  0  0  0
   -5.0530    5.7540   11.3140 C   0  0  0  0  0  0  0  0  0  0  0  0
   -5.4040    5.3780   10.2010 O   0  0  0  0  0  0  0  0  0  0  0  0
   -5.5140    5.2500   12.4930 N   0  0  0  0  0  0  0  0  0  0  0  0
   -5.0150    4.1740   12.9830 C   0  0  0  0  0  0  0  0  0  0  0  0
   -5.7280    3.6880   14.5340 S   0  0  0  0  0  0  0  0  0  0  0  0
   -4.6720    2.2900   14.5200 C   0  0  0  0  0  0  0  0  0  0  0  0
   -4.6900    1.0530   15.7950 S   0  0  0  0  0  0  0  0  0  0  0  0
   -4.6680   -0.4710   15.0530 N   0  0  0  0  0  0  0  0  0  0  0  0
   -5.9820    1.1370   16.4400 O   0  0  0  0  0  0  0  0  0  0  0  0
   -3.4540    1.1460   16.5390 O   0  0  0  0  0  0  0  0  0  0  0  0
   -3.8660    2.1670   13.5010 N   0  0  0  0  0  0  0  0  0  0  0  0
   -4.0680    3.2260   12.6390 N   0  0  0  0  0  0  0  0  0  0  0  0
   -3.2010    3.2610   11.4780 C   0  0  0  0  0  0  0  0  0  0  0  0
   -3.8344    6.9877   12.5652 H   0  0  0  0  0  0  0  0  0  0  0  0
   -3.0660    6.4876   11.0205 H   0  0  0  0  0  0  0  0  0  0  0  0
   -4.3440    7.7499   11.0205 H   0  0  0  0  0  0  0  0  0  0  0  0
   -4.9870   -0.3780   14.0870 H   0  0  0  0  0  0  0  0  0  0  0  0
   -3.7310   -0.8770   15.1180 H   0  0  0  0  0  0  0  0  0  0  0  0
   -2.1516    3.3034   11.8052 H   0  0  0  0  0  0  0  0  0  0  0  0
   -3.3605    2.3557   10.8739 H   0  0  0  0  0  0  0  0  0  0  0  0
   -3.4329    4.1505   10.8739 H   0  0  0  0  0  0  0  0  0  0  0  0
  1  2  1  0
  2  3  2  0
  2  4  1  0
  4  5  2  0
  5  6  1  0
  6  7  1  0
  7  8  1  0
  8  9  1  0
  8 10  2  0
  8 11  2  0
  7 12  2  0
 12 13  1  0
 13 14  1  0
 13  5  1  0
  1 15  1  0
  1 16  1  0
  1 17  1  0
  9 18  1  0
  9 19  1  0
 14 20  1  0
 14 21  1  0
 14 22  1  0
M  END
>  <meeko>  (1) 
{"is_sidechain": false}

>  <vina_kcal_mol>  (1) 
-6.241

$$$$
