sulfanilamida
     RDKit          3D

 19 19  0  0  0  0  0  0  0  0999 V2000
   -4.5650    5.5360   13.6990 N   0  0  0  0  0  0  0  0  0  0  0  0
   -4.8770    4.4950   14.5800 C   0  0  0  0  0  0  0  0  0  0  0  0
   -6.1690    4.3810   15.1030 C   0  0  0  0  0  0  0  0  0  0  0  0
   -6.5290    3.2800   15.8830 C   0  0  0  0  0  0  0  0  0  0  0  0
   -5.6010    2.2580   16.0980 C   0  0  0  0  0  0  0  0  0  0  0  0
   -6.0630    0.8580   17.0800 S   0  0  0  0  0  0  0  0  0  0  0  0
   -5.3650   -0.4050   16.2110 N   0  0  0  0  0  0  0  0  0  0  0  0
   -7.4960    0.7060   17.0160 O   0  0  0  0  0  0  0  0  0  0  0  0
   -5.3400    0.9140   18.3300 O   0  0  0  0  0  0  0  0  0  0  0  0
   -4.3210    2.3340   15.5470 C   0  0  0  0  0  0  0  0  0  0  0  0
   -3.9740    3.4410   14.7690 C   0  0  0  0  0  0  0  0  0  0  0  0
   -5.1670    5.5800   12.8830 H   0  0  0  0  0  0  0  0  0  0  0  0
   -3.5810    5.5850   13.4500 H   0  0  0  0  0  0  0  0  0  0  0  0
   -6.9101    5.1675   14.8976 H   0  0  0  0  0  0  0  0  0  0  0  0
   -7.5347    3.2180   16.3244 H   0  0  0  0  0  0  0  0  0  0  0  0
   -4.7700   -0.9480   16.8400 H   0  0  0  0  0  0  0  0  0  0  0  0
   -4.8560   -0.0910   15.3850 H   0  0  0  0  0  0  0  0  0  0  0  0
   -3.5920    1.5294   15.7238 H   0  0  0  0  0  0  0  0  0  0  0  0
   -2.9803    3.4856   14.2994 H   0  0  0  0  0  0  0  0  0  0  0  0
  1  2  1  0
  2  3  1  0
  3  4  2  0
  4  5  1  0
  5  6  1  0
  6  7  1  0
  6  8  2  0
  6  9  2  0
  5 10  2  0
 10 11  1  0
 11  2  2  0
  1 12  1  0
  1 13  1  0
  3 14  1  0
  4 15  1  0
  7 16  1  0
  7 17  1  0
 10 18  1  0
 11 19  1  0
M  END
>  <meeko>  (1) 
{"is_sidechain": false}

>  <vina_kcal_mol>  (1) 
-5.925

$$$$
