pose 1
     RDKit          3D

 28 28  0  0  0  0  0  0  0  0999 V2000
   44.8520   33.3630   43.6080 C   0  0  0  0  0  0  0  0  0  0  0  0
   43.7960   33.5870   44.6950 C   0  0  2  0  0  0  0  0  0  0  0  0
   42.9970   32.3220   45.0280 C   0  0  0  0  0  0  0  0  0  0  0  0
   43.3350   30.9040   43.9300 S   0  0  0  0  0  0  0  0  0  0  0  0
   42.7870   34.6290   44.2130 C   0  0  0  0  0  0  0  0  0  0  0  0
   42.2910   35.4340   45.0090 O   0  0  0  0  0  0  0  0  0  0  0  0
   42.5570   34.7280   42.8600 N   0  0  0  0  0  0  0  0  0  0  0  0
   43.0160   35.8820   42.1130 C   0  0  0  0  0  0  0  0  0  0  0  0
   42.2890   35.8160   40.7780 C   0  0  0  0  0  0  0  0  0  0  0  0
   41.9860   34.3300   40.6120 C   0  0  0  0  0  0  0  0  0  0  0  0
   41.6490   33.8920   42.0380 C   0  0  0  0  0  0  0  0  0  0  0  0
   40.1110   34.0570   42.2750 C   0  0  0  0  0  0  0  0  0  0  0  0
   39.4060   33.0880   41.8670 O   0  0  0  0  0  0  0  0  0  0  0  0
   39.7470   35.1150   42.8630 O   0  0  0  0  0  0  0  0  0  0  0  0
   45.8246   33.1567   44.0786 H   0  0  0  0  0  0  0  0  0  0  0  0
   44.5585   32.5071   42.9824 H   0  0  0  0  0  0  0  0  0  0  0  0
   44.9312   34.2643   42.9824 H   0  0  0  0  0  0  0  0  0  0  0  0
   44.3432   33.9092   45.5932 H   0  0  0  0  0  0  0  0  0  0  0  0
   43.2390   32.0239   46.0588 H   0  0  0  0  0  0  0  0  0  0  0  0
   41.9356   32.5771   44.8926 H   0  0  0  0  0  0  0  0  0  0  0  0
   43.1290   31.5520   42.7750 H   0  0  0  0  0  0  0  0  0  0  0  0
   42.7607   36.8106   42.6445 H   0  0  0  0  0  0  0  0  0  0  0  0
   44.1084   35.8771   41.9840 H   0  0  0  0  0  0  0  0  0  0  0  0
   41.3610   36.4060   40.8058 H   0  0  0  0  0  0  0  0  0  0  0  0
   42.8798   36.2287   39.9470 H   0  0  0  0  0  0  0  0  0  0  0  0
   41.1319   34.1727   39.9368 H   0  0  0  0  0  0  0  0  0  0  0  0
   42.8170   33.7630   40.1670 H   0  0  0  0  0  0  0  0  0  0  0  0
   41.8153   32.8340   42.2890 H   0  0  0  0  0  0  0  0  0  0  0  0
  1  2  1  0
  2  3  1  0
  3  4  1  0
  2  5  1  0
  5  6  2  0
  5  7  1  0
  7  8  1  0
  8  9  1  0
  9 10  1  0
 10 11  1  0
 11 12  1  0
 12 13  2  0
 12 14  1  0
 11  7  1  0
  1 15  1  0
  1 16  1  0
  1 17  1  0
  2 18  1  1
  3 19  1  0
  3 20  1  0
  4 21  1  0
  8 22  1  0
  8 23  1  0
  9 24  1  0
  9 25  1  0
 10 26  1  0
 10 27  1  0
 11 28  1  0
M  CHG  1  14  -1
M  END
>  <meeko>  (1) 
{"is_sidechain": false}

>  <vina_kcal_mol>  (1) 
-5.751

>  <rmsd_cristal>  (1) 
2.71

$$$$
pose 2
     RDKit          3D

 28 28  0  0  0  0  0  0  0  0999 V2000
   42.6010   34.6840   39.8240 C   0  0  0  0  0  0  0  0  0  0  0  0
   42.2630   35.7610   40.8610 C   0  0  2  0  0  0  0  0  0  0  0  0
   43.5050   36.3830   41.5090 C   0  0  0  0  0  0  0  0  0  0  0  0
   45.0740   35.5540   41.0850 S   0  0  0  0  0  0  0  0  0  0  0  0
   41.4440   35.1360   41.9900 C   0  0  0  0  0  0  0  0  0  0  0  0
   40.2110   35.2250   41.9910 O   0  0  0  0  0  0  0  0  0  0  0  0
   42.1060   34.3650   42.9180 N   0  0  0  0  0  0  0  0  0  0  0  0
   42.0250   32.9190   42.8720 C   0  0  0  0  0  0  0  0  0  0  0  0
   42.5580   32.4410   44.2140 C   0  0  0  0  0  0  0  0  0  0  0  0
   43.4840   33.5700   44.6510 C   0  0  0  0  0  0  0  0  0  0  0  0
   42.7410   34.8210   44.1780 C   0  0  0  0  0  0  0  0  0  0  0  0
   41.7940   35.3160   45.3200 C   0  0  0  0  0  0  0  0  0  0  0  0
   42.3640   35.9980   46.2220 O   0  0  0  0  0  0  0  0  0  0  0  0
   40.5730   35.0080   45.2070 O   0  0  0  0  0  0  0  0  0  0  0  0
   42.8919   33.7569   40.3397 H   0  0  0  0  0  0  0  0  0  0  0  0
   41.7199   34.4921   39.1941 H   0  0  0  0  0  0  0  0  0  0  0  0
   43.4337   35.0300   39.1941 H   0  0  0  0  0  0  0  0  0  0  0  0
   41.7125   36.5459   40.3217 H   0  0  0  0  0  0  0  0  0  0  0  0
   43.5724   37.4323   41.1857 H   0  0  0  0  0  0  0  0  0  0  0  0
   43.3779   36.2756   42.5963 H   0  0  0  0  0  0  0  0  0  0  0  0
   44.6450   34.9860   39.9500 H   0  0  0  0  0  0  0  0  0  0  0  0
   40.9824   32.5962   42.7351 H   0  0  0  0  0  0  0  0  0  0  0  0
   42.6011   32.5038   42.0320 H   0  0  0  0  0  0  0  0  0  0  0  0
   41.7393   32.3023   44.9355 H   0  0  0  0  0  0  0  0  0  0  0  0
   43.0680   31.4684   44.1509 H   0  0  0  0  0  0  0  0  0  0  0  0
   43.6137   33.5756   45.7433 H   0  0  0  0  0  0  0  0  0  0  0  0
   44.4997   33.4846   44.2374 H   0  0  0  0  0  0  0  0  0  0  0  0
   43.3469   35.7149   43.9684 H   0  0  0  0  0  0  0  0  0  0  0  0
  1  2  1  0
  2  3  1  0
  3  4  1  0
  2  5  1  0
  5  6  2  0
  5  7  1  0
  7  8  1  0
  8  9  1  0
  9 10  1  0
 10 11  1  0
 11 12  1  0
 12 13  2  0
 12 14  1  0
 11  7  1  0
  1 15  1  0
  1 16  1  0
  1 17  1  0
  2 18  1  6
  3 19  1  0
  3 20  1  0
  4 21  1  0
  8 22  1  0
  8 23  1  0
  9 24  1  0
  9 25  1  0
 10 26  1  0
 10 27  1  0
 11 28  1  0
M  CHG  1  14  -1
M  END
>  <meeko>  (2) 
{"is_sidechain": false}

>  <vina_kcal_mol>  (2) 
-5.72

>  <rmsd_cristal>  (2) 
4.46

$$$$
pose 3
     RDKit          3D

 28 28  0  0  0  0  0  0  0  0999 V2000
   47.3140   34.0520   41.6240 C   0  0  0  0  0  0  0  0  0  0  0  0
   45.8480   33.6350   41.7860 C   0  0  2  0  0  0  0  0  0  0  0  0
   45.3190   32.8210   40.6000 C   0  0  0  0  0  0  0  0  0  0  0  0
   46.0790   33.2430   38.9950 S   0  0  0  0  0  0  0  0  0  0  0  0
   44.9750   34.8860   41.8840 C   0  0  0  0  0  0  0  0  0  0  0  0
   45.3240   35.9370   41.3340 O   0  0  0  0  0  0  0  0  0  0  0  0
   43.7410   34.7670   42.4780 N   0  0  0  0  0  0  0  0  0  0  0  0
   43.5350   33.8500   43.5820 C   0  0  0  0  0  0  0  0  0  0  0  0
   42.0260   33.7260   43.7300 C   0  0  0  0  0  0  0  0  0  0  0  0
   41.5040   35.0400   43.1570 C   0  0  0  0  0  0  0  0  0  0  0  0
   42.4470   35.2950   41.9800 C   0  0  0  0  0  0  0  0  0  0  0  0
   41.8500   34.6350   40.6940 C   0  0  0  0  0  0  0  0  0  0  0  0
   40.6540   34.2360   40.8100 O   0  0  0  0  0  0  0  0  0  0  0  0
   42.6090   34.5950   39.6830 O   0  0  0  0  0  0  0  0  0  0  0  0
   47.7701   34.1817   42.6165 H   0  0  0  0  0  0  0  0  0  0  0  0
   47.8577   33.2729   41.0696 H   0  0  0  0  0  0  0  0  0  0  0  0
   47.3663   35.0006   41.0696 H   0  0  0  0  0  0  0  0  0  0  0  0
   45.8033   33.0133   42.6923 H   0  0  0  0  0  0  0  0  0  0  0  0
   45.5096   31.7565   40.8013 H   0  0  0  0  0  0  0  0  0  0  0  0
   44.2481   33.0563   40.5112 H   0  0  0  0  0  0  0  0  0  0  0  0
   46.2460   31.9840   38.5680 H   0  0  0  0  0  0  0  0  0  0  0  0
   43.9811   32.8702   43.3565 H   0  0  0  0  0  0  0  0  0  0  0  0
   44.0078   34.2116   44.5070 H   0  0  0  0  0  0  0  0  0  0  0  0
   41.6438   32.8679   43.1577 H   0  0  0  0  0  0  0  0  0  0  0  0
   41.7096   33.5557   44.7696 H   0  0  0  0  0  0  0  0  0  0  0  0
   40.4632   34.9378   42.8159 H   0  0  0  0  0  0  0  0  0  0  0  0
   41.4910   35.8600   43.8901 H   0  0  0  0  0  0  0  0  0  0  0  0
   42.5865   36.3403   41.6670 H   0  0  0  0  0  0  0  0  0  0  0  0
  1  2  1  0
  2  3  1  0
  3  4  1  0
  2  5  1  0
  5  6  2  0
  5  7  1  0
  7  8  1  0
  8  9  1  0
  9 10  1  0
 10 11  1  0
 11 12  1  0
 12 13  2  0
 12 14  1  0
 11  7  1  0
  1 15  1  0
  1 16  1  0
  1 17  1  0
  2 18  1  1
  3 19  1  0
  3 20  1  0
  4 21  1  0
  8 22  1  0
  8 23  1  0
  9 24  1  0
  9 25  1  0
 10 26  1  0
 10 27  1  0
 11 28  1  0
M  CHG  1  14  -1
M  END
>  <meeko>  (3) 
{"is_sidechain": false}

>  <vina_kcal_mol>  (3) 
-5.408

>  <rmsd_cristal>  (3) 
5.06

$$$$
pose 4
     RDKit          3D

 28 28  0  0  0  0  0  0  0  0999 V2000
   41.2190   35.3890   41.4290 C   0  0  0  0  0  0  0  0  0  0  0  0
   42.5920   34.9940   41.9800 C   0  0  2  0  0  0  0  0  0  0  0  0
   42.7930   35.3980   43.4450 C   0  0  0  0  0  0  0  0  0  0  0  0
   41.5360   34.7330   44.5900 S   0  0  0  0  0  0  0  0  0  0  0  0
   43.6820   35.7040   41.1770 C   0  0  0  0  0  0  0  0  0  0  0  0
   43.9140   36.9050   41.3620 O   0  0  0  0  0  0  0  0  0  0  0  0
   44.4770   34.9420   40.3530 N   0  0  0  0  0  0  0  0  0  0  0  0
   43.9140   33.8520   39.5820 C   0  0  0  0  0  0  0  0  0  0  0  0
   45.1080   33.0410   39.0960 C   0  0  0  0  0  0  0  0  0  0  0  0
   46.2420   34.0600   39.0700 C   0  0  0  0  0  0  0  0  0  0  0  0
   45.9590   34.9140   40.3070 C   0  0  0  0  0  0  0  0  0  0  0  0
   46.7040   34.2950   41.5360 C   0  0  0  0  0  0  0  0  0  0  0  0
   47.9650   34.3970   41.4960 O   0  0  0  0  0  0  0  0  0  0  0  0
   45.9730   33.7910   42.4360 O   0  0  0  0  0  0  0  0  0  0  0  0
   40.5316   35.5868   42.2647 H   0  0  0  0  0  0  0  0  0  0  0  0
   41.3179   36.2951   40.8132 H   0  0  0  0  0  0  0  0  0  0  0  0
   40.8212   34.5689   40.8132 H   0  0  0  0  0  0  0  0  0  0  0  0
   42.6504   33.8984   41.9016 H   0  0  0  0  0  0  0  0  0  0  0  0
   43.7798   35.0360   43.7694 H   0  0  0  0  0  0  0  0  0  0  0  0
   42.7043   36.4937   43.4835 H   0  0  0  0  0  0  0  0  0  0  0  0
   41.1370   33.7200   43.8080 H   0  0  0  0  0  0  0  0  0  0  0  0
   43.2592   33.2327   40.2126 H   0  0  0  0  0  0  0  0  0  0  0  0
   43.2999   34.2172   38.7456 H   0  0  0  0  0  0  0  0  0  0  0  0
   45.3340   32.2186   39.7907 H   0  0  0  0  0  0  0  0  0  0  0  0
   44.9351   32.5666   38.1187 H   0  0  0  0  0  0  0  0  0  0  0  0
   47.2213   33.5649   39.1460 H   0  0  0  0  0  0  0  0  0  0  0  0
   46.2820   34.6432   38.1382 H   0  0  0  0  0  0  0  0  0  0  0  0
   46.3332   35.9484   40.2985 H   0  0  0  0  0  0  0  0  0  0  0  0
  1  2  1  0
  2  3  1  0
  3  4  1  0
  2  5  1  0
  5  6  2  0
  5  7  1  0
  7  8  1  0
  8  9  1  0
  9 10  1  0
 10 11  1  0
 11 12  1  0
 12 13  2  0
 12 14  1  0
 11  7  1  0
  1 15  1  0
  1 16  1  0
  1 17  1  0
  2 18  1  1
  3 19  1  0
  3 20  1  0
  4 21  1  0
  8 22  1  0
  8 23  1  0
  9 24  1  0
  9 25  1  0
 10 26  1  0
 10 27  1  0
 11 28  1  0
M  CHG  1  14  -1
M  END
>  <meeko>  (4) 
{"is_sidechain": false}

>  <vina_kcal_mol>  (4) 
-5.404

>  <rmsd_cristal>  (4) 
5.34

$$$$
pose 5
     RDKit          3D

 28 28  0  0  0  0  0  0  0  0999 V2000
   47.2140   34.2010   38.9350 C   0  0  0  0  0  0  0  0  0  0  0  0
   46.2070   33.5720   39.9030 C   0  0  2  0  0  0  0  0  0  0  0  0
   46.3330   32.0480   39.9980 C   0  0  0  0  0  0  0  0  0  0  0  0
   47.3550   31.2920   38.6880 S   0  0  0  0  0  0  0  0  0  0  0  0
   44.7870   33.8650   39.4160 C   0  0  0  0  0  0  0  0  0  0  0  0
   44.2820   33.1830   38.5170 O   0  0  0  0  0  0  0  0  0  0  0  0
   44.0530   34.8090   40.0960 N   0  0  0  0  0  0  0  0  0  0  0  0
   44.6620   35.6100   41.1390 C   0  0  0  0  0  0  0  0  0  0  0  0
   43.5010   36.2560   41.8830 C   0  0  0  0  0  0  0  0  0  0  0  0
   42.3910   36.3010   40.8380 C   0  0  0  0  0  0  0  0  0  0  0  0
   42.5810   34.9820   40.0850 C   0  0  0  0  0  0  0  0  0  0  0  0
   41.7220   33.8710   40.7760 C   0  0  0  0  0  0  0  0  0  0  0  0
   40.4780   34.1050   40.8030 O   0  0  0  0  0  0  0  0  0  0  0  0
   42.3530   32.8620   41.2020 O   0  0  0  0  0  0  0  0  0  0  0  0
   48.0108   34.6987   39.5071 H   0  0  0  0  0  0  0  0  0  0  0  0
   47.6529   33.4162   38.3014 H   0  0  0  0  0  0  0  0  0  0  0  0
   46.7013   34.9397   38.3014 H   0  0  0  0  0  0  0  0  0  0  0  0
   46.4169   34.0084   40.8907 H   0  0  0  0  0  0  0  0  0  0  0  0
   46.7824   31.8000   40.9709 H   0  0  0  0  0  0  0  0  0  0  0  0
   45.3180   31.6413   39.8780 H   0  0  0  0  0  0  0  0  0  0  0  0
   47.9230   30.3550   39.4580 H   0  0  0  0  0  0  0  0  0  0  0  0
   45.2489   34.9749   41.8188 H   0  0  0  0  0  0  0  0  0  0  0  0
   45.3525   36.3609   40.7274 H   0  0  0  0  0  0  0  0  0  0  0  0
   43.2015   35.6476   42.7491 H   0  0  0  0  0  0  0  0  0  0  0  0
   43.7497   37.2482   42.2875 H   0  0  0  0  0  0  0  0  0  0  0  0
   41.4003   36.3465   41.3139 H   0  0  0  0  0  0  0  0  0  0  0  0
   42.4417   37.1858   40.1864 H   0  0  0  0  0  0  0  0  0  0  0  0
   42.2269   34.9431   39.0443 H   0  0  0  0  0  0  0  0  0  0  0  0
  1  2  1  0
  2  3  1  0
  3  4  1  0
  2  5  1  0
  5  6  2  0
  5  7  1  0
  7  8  1  0
  8  9  1  0
  9 10  1  0
 10 11  1  0
 11 12  1  0
 12 13  2  0
 12 14  1  0
 11  7  1  0
  1 15  1  0
  1 16  1  0
  1 17  1  0
  2 18  1  1
  3 19  1  0
  3 20  1  0
  4 21  1  0
  8 22  1  0
  8 23  1  0
  9 24  1  0
  9 25  1  0
 10 26  1  0
 10 27  1  0
 11 28  1  0
M  CHG  1  14  -1
M  END
>  <meeko>  (5) 
{"is_sidechain": false}

>  <vina_kcal_mol>  (5) 
-5.402

>  <rmsd_cristal>  (5) 
5.94

$$$$
pose 6
     RDKit          3D

 28 28  0  0  0  0  0  0  0  0999 V2000
   43.8310   31.8640   44.2250 C   0  0  0  0  0  0  0  0  0  0  0  0
   43.3610   33.3040   44.4520 C   0  0  2  0  0  0  0  0  0  0  0  0
   42.7100   33.5170   45.8230 C   0  0  0  0  0  0  0  0  0  0  0  0
   42.2540   35.2470   46.1830 S   0  0  0  0  0  0  0  0  0  0  0  0
   42.3050   33.6620   43.4060 C   0  0  0  0  0  0  0  0  0  0  0  0
   41.2100   33.0880   43.4010 O   0  0  0  0  0  0  0  0  0  0  0  0
   42.5590   34.7240   42.5690 N   0  0  0  0  0  0  0  0  0  0  0  0
   41.5850   35.1340   41.5770 C   0  0  0  0  0  0  0  0  0  0  0  0
   42.3350   36.0650   40.6350 C   0  0  0  0  0  0  0  0  0  0  0  0
   43.4600   36.6190   41.5030 C   0  0  0  0  0  0  0  0  0  0  0  0
   43.8550   35.4120   42.3570 C   0  0  0  0  0  0  0  0  0  0  0  0
   44.9800   34.6120   41.6200 C   0  0  0  0  0  0  0  0  0  0  0  0
   46.1120   35.1780   41.6120 O   0  0  0  0  0  0  0  0  0  0  0  0
   44.6460   33.4900   41.1430 O   0  0  0  0  0  0  0  0  0  0  0  0
   43.9912   31.3732   45.1963 H   0  0  0  0  0  0  0  0  0  0  0  0
   43.0659   31.3137   43.6578 H   0  0  0  0  0  0  0  0  0  0  0  0
   44.7735   31.8710   43.6578 H   0  0  0  0  0  0  0  0  0  0  0  0
   44.2599   33.9343   44.3829 H   0  0  0  0  0  0  0  0  0  0  0  0
   41.7975   32.9044   45.8691 H   0  0  0  0  0  0  0  0  0  0  0  0
   43.4601   33.2282   46.5740 H   0  0  0  0  0  0  0  0  0  0  0  0
   42.1270   35.1000   47.5080 H   0  0  0  0  0  0  0  0  0  0  0  0
   41.2016   34.2601   41.0299 H   0  0  0  0  0  0  0  0  0  0  0  0
   40.7168   35.6293   42.0363 H   0  0  0  0  0  0  0  0  0  0  0  0
   42.7386   35.5117   39.7742 H   0  0  0  0  0  0  0  0  0  0  0  0
   41.6943   36.8519   40.2104 H   0  0  0  0  0  0  0  0  0  0  0  0
   44.3042   36.9615   40.8865 H   0  0  0  0  0  0  0  0  0  0  0  0
   43.1603   37.4942   42.0981 H   0  0  0  0  0  0  0  0  0  0  0  0
   44.3118   35.6183   43.3362 H   0  0  0  0  0  0  0  0  0  0  0  0
  1  2  1  0
  2  3  1  0
  3  4  1  0
  2  5  1  0
  5  6  2  0
  5  7  1  0
  7  8  1  0
  8  9  1  0
  9 10  1  0
 10 11  1  0
 11 12  1  0
 12 13  2  0
 12 14  1  0
 11  7  1  0
  1 15  1  0
  1 16  1  0
  1 17  1  0
  2 18  1  1
  3 19  1  0
  3 20  1  0
  4 21  1  0
  8 22  1  0
  8 23  1  0
  9 24  1  0
  9 25  1  0
 10 26  1  0
 10 27  1  0
 11 28  1  0
M  CHG  1  14  -1
M  END
>  <meeko>  (6) 
{"is_sidechain": false}

>  <vina_kcal_mol>  (6) 
-5.392

>  <rmsd_cristal>  (6) 
3.44

$$$$
pose 7
     RDKit          3D

 28 28  0  0  0  0  0  0  0  0999 V2000
   42.9730   33.7670   38.6190 C   0  0  0  0  0  0  0  0  0  0  0  0
   43.7570   34.1440   39.8800 C   0  0  2  0  0  0  0  0  0  0  0  0
   45.2760   34.0690   39.6910 C   0  0  0  0  0  0  0  0  0  0  0  0
   46.2430   34.7990   41.0560 S   0  0  0  0  0  0  0  0  0  0  0  0
   43.4060   33.1670   41.0040 C   0  0  0  0  0  0  0  0  0  0  0  0
   43.6180   31.9570   40.8680 O   0  0  0  0  0  0  0  0  0  0  0  0
   42.9830   33.6890   42.2040 N   0  0  0  0  0  0  0  0  0  0  0  0
   43.2060   32.9700   43.4430 C   0  0  0  0  0  0  0  0  0  0  0  0
   42.3140   33.6510   44.4710 C   0  0  0  0  0  0  0  0  0  0  0  0
   42.1570   35.0650   43.9240 C   0  0  0  0  0  0  0  0  0  0  0  0
   42.0700   34.8370   42.4140 C   0  0  0  0  0  0  0  0  0  0  0  0
   40.5700   34.6440   42.0120 C   0  0  0  0  0  0  0  0  0  0  0  0
   39.7350   35.0840   42.8560 O   0  0  0  0  0  0  0  0  0  0  0  0
   40.3580   34.1000   40.8910 O   0  0  0  0  0  0  0  0  0  0  0  0
   42.0160   33.3068   38.9061 H   0  0  0  0  0  0  0  0  0  0  0  0
   42.7808   34.6712   38.0227 H   0  0  0  0  0  0  0  0  0  0  0  0
   43.5592   33.0523   38.0227 H   0  0  0  0  0  0  0  0  0  0  0  0
   43.4791   35.1819   40.1155 H   0  0  0  0  0  0  0  0  0  0  0  0
   45.5590   33.0102   39.5968 H   0  0  0  0  0  0  0  0  0  0  0  0
   45.5097   34.6572   38.7913 H   0  0  0  0  0  0  0  0  0  0  0  0
   45.8760   36.0700   40.8420 H   0  0  0  0  0  0  0  0  0  0  0  0
   42.9254   31.9124   43.3302 H   0  0  0  0  0  0  0  0  0  0  0  0
   44.2642   32.9892   43.7426 H   0  0  0  0  0  0  0  0  0  0  0  0
   41.3392   33.1462   44.5418 H   0  0  0  0  0  0  0  0  0  0  0  0
   42.7360   33.6287   45.4866 H   0  0  0  0  0  0  0  0  0  0  0  0
   41.2407   35.5383   44.3066 H   0  0  0  0  0  0  0  0  0  0  0  0
   42.9764   35.7382   44.2161 H   0  0  0  0  0  0  0  0  0  0  0  0
   42.3858   35.6655   41.7630 H   0  0  0  0  0  0  0  0  0  0  0  0
  1  2  1  0
  2  3  1  0
  3  4  1  0
  2  5  1  0
  5  6  2  0
  5  7  1  0
  7  8  1  0
  8  9  1  0
  9 10  1  0
 10 11  1  0
 11 12  1  0
 12 13  2  0
 12 14  1  0
 11  7  1  0
  1 15  1  0
  1 16  1  0
  1 17  1  0
  2 18  1  1
  3 19  1  0
  3 20  1  0
  4 21  1  0
  8 22  1  0
  8 23  1  0
  9 24  1  0
  9 25  1  0
 10 26  1  0
 10 27  1  0
 11 28  1  0
M  CHG  1  14  -1
M  END
>  <meeko>  (7) 
{"is_sidechain": false}

>  <vina_kcal_mol>  (7) 
-5.267

>  <rmsd_cristal>  (7) 
4.83

$$$$
pose 8
     RDKit          3D

 28 28  0  0  0  0  0  0  0  0999 V2000
   42.7850   36.2070   40.8980 C   0  0  0  0  0  0  0  0  0  0  0  0
   43.9240   35.3830   41.5050 C   0  0  2  0  0  0  0  0  0  0  0  0
   45.1010   35.1820   40.5450 C   0  0  0  0  0  0  0  0  0  0  0  0
   46.6170   34.5400   41.3320 S   0  0  0  0  0  0  0  0  0  0  0  0
   43.4050   33.9890   41.8600 C   0  0  0  0  0  0  0  0  0  0  0  0
   43.2130   33.1490   40.9730 O   0  0  0  0  0  0  0  0  0  0  0  0
   43.2920   33.6610   43.1910 N   0  0  0  0  0  0  0  0  0  0  0  0
   43.7030   32.3560   43.6700 C   0  0  0  0  0  0  0  0  0  0  0  0
   43.1120   32.2340   45.0670 C   0  0  0  0  0  0  0  0  0  0  0  0
   42.9740   33.6820   45.5230 C   0  0  0  0  0  0  0  0  0  0  0  0
   42.5510   34.4020   44.2400 C   0  0  0  0  0  0  0  0  0  0  0  0
   40.9890   34.4070   44.1470 C   0  0  0  0  0  0  0  0  0  0  0  0
   40.5160   33.7660   43.1630 O   0  0  0  0  0  0  0  0  0  0  0  0
   40.3770   35.0190   45.0680 O   0  0  0  0  0  0  0  0  0  0  0  0
   42.1792   36.6453   41.7048 H   0  0  0  0  0  0  0  0  0  0  0  0
   43.2052   37.0115   40.2766 H   0  0  0  0  0  0  0  0  0  0  0  0
   42.1524   35.5561   40.2766 H   0  0  0  0  0  0  0  0  0  0  0  0
   44.2741   35.9439   42.3841 H   0  0  0  0  0  0  0  0  0  0  0  0
   44.7909   34.4708   39.7652 H   0  0  0  0  0  0  0  0  0  0  0  0
   45.3523   36.1755   40.1452 H   0  0  0  0  0  0  0  0  0  0  0  0
   47.3040   35.6900   41.3040 H   0  0  0  0  0  0  0  0  0  0  0  0
   43.3099   31.5643   43.0153 H   0  0  0  0  0  0  0  0  0  0  0  0
   44.7978   32.2493   43.6781 H   0  0  0  0  0  0  0  0  0  0  0  0
   42.1316   31.7361   45.0370 H   0  0  0  0  0  0  0  0  0  0  0  0
   43.7335   31.6292   45.7437 H   0  0  0  0  0  0  0  0  0  0  0  0
   42.2058   33.7800   46.3042 H   0  0  0  0  0  0  0  0  0  0  0  0
   43.8944   34.0885   45.9676 H   0  0  0  0  0  0  0  0  0  0  0  0
   42.7967   35.4713   44.1612 H   0  0  0  0  0  0  0  0  0  0  0  0
  1  2  1  0
  2  3  1  0
  3  4  1  0
  2  5  1  0
  5  6  2  0
  5  7  1  0
  7  8  1  0
  8  9  1  0
  9 10  1  0
 10 11  1  0
 11 12  1  0
 12 13  2  0
 12 14  1  0
 11  7  1  0
  1 15  1  0
  1 16  1  0
  1 17  1  0
  2 18  1  1
  3 19  1  0
  3 20  1  0
  4 21  1  0
  8 22  1  0
  8 23  1  0
  9 24  1  0
  9 25  1  0
 10 26  1  0
 10 27  1  0
 11 28  1  0
M  CHG  1  14  -1
M  END
>  <meeko>  (8) 
{"is_sidechain": false}

>  <vina_kcal_mol>  (8) 
-5.187

>  <rmsd_cristal>  (8) 
4.63

$$$$
pose 9
     RDKit          3D

 28 28  0  0  0  0  0  0  0  0999 V2000
   43.4200   30.3760   43.1380 C   0  0  0  0  0  0  0  0  0  0  0  0
   43.2490   31.5340   42.1500 C   0  0  2  0  0  0  0  0  0  0  0  0
   44.2030   31.4510   40.9530 C   0  0  0  0  0  0  0  0  0  0  0  0
   43.3890   31.6040   39.3270 S   0  0  0  0  0  0  0  0  0  0  0  0
   43.5500   32.8540   42.8600 C   0  0  0  0  0  0  0  0  0  0  0  0
   44.1470   32.8590   43.9430 O   0  0  0  0  0  0  0  0  0  0  0  0
   43.2600   34.0240   42.1980 N   0  0  0  0  0  0  0  0  0  0  0  0
   44.2260   35.1040   42.1470 C   0  0  0  0  0  0  0  0  0  0  0  0
   43.4470   36.3200   41.6670 C   0  0  0  0  0  0  0  0  0  0  0  0
   42.2920   35.7140   40.8770 C   0  0  0  0  0  0  0  0  0  0  0  0
   41.9390   34.4700   41.6940 C   0  0  0  0  0  0  0  0  0  0  0  0
   40.8560   34.8480   42.7580 C   0  0  0  0  0  0  0  0  0  0  0  0
   39.7290   35.1640   42.2760 O   0  0  0  0  0  0  0  0  0  0  0  0
   41.2120   34.7720   43.9690 O   0  0  0  0  0  0  0  0  0  0  0  0
   43.3632   30.7606   44.1670 H   0  0  0  0  0  0  0  0  0  0  0  0
   42.6213   29.6367   42.9782 H   0  0  0  0  0  0  0  0  0  0  0  0
   44.3983   29.8991   42.9782 H   0  0  0  0  0  0  0  0  0  0  0  0
   42.2132   31.4747   41.7844 H   0  0  0  0  0  0  0  0  0  0  0  0
   44.9418   32.2608   41.0453 H   0  0  0  0  0  0  0  0  0  0  0  0
   44.6575   30.4497   40.9831 H   0  0  0  0  0  0  0  0  0  0  0  0
   44.5090   31.7800   38.6120 H   0  0  0  0  0  0  0  0  0  0  0  0
   44.6506   35.2882   43.1449 H   0  0  0  0  0  0  0  0  0  0  0  0
   45.0685   34.8683   41.4802 H   0  0  0  0  0  0  0  0  0  0  0  0
   43.0748   36.9094   42.5179 H   0  0  0  0  0  0  0  0  0  0  0  0
   44.0585   37.0118   41.0691 H   0  0  0  0  0  0  0  0  0  0  0  0
   41.4405   36.4084   40.8244 H   0  0  0  0  0  0  0  0  0  0  0  0
   42.5497   35.4898   39.8314 H   0  0  0  0  0  0  0  0  0  0  0  0
   41.4639   33.6360   41.1566 H   0  0  0  0  0  0  0  0  0  0  0  0
  1  2  1  0
  2  3  1  0
  3  4  1  0
  2  5  1  0
  5  6  2  0
  5  7  1  0
  7  8  1  0
  8  9  1  0
  9 10  1  0
 10 11  1  0
 11 12  1  0
 12 13  2  0
 12 14  1  0
 11  7  1  0
  1 15  1  0
  1 16  1  0
  1 17  1  0
  2 18  1  6
  3 19  1  0
  3 20  1  0
  4 21  1  0
  8 22  1  0
  8 23  1  0
  9 24  1  0
  9 25  1  0
 10 26  1  0
 10 27  1  0
 11 28  1  0
M  CHG  1  14  -1
M  END
>  <meeko>  (9) 
{"is_sidechain": false}

>  <vina_kcal_mol>  (9) 
-5.169

>  <rmsd_cristal>  (9) 
4.4

$$$$
