captopril (1UZF/MCO)
     RDKit          3D

 28 28  0  0  0  0  0  0  0  0999 V2000
   38.6980   33.1690   41.8830 O   0  0  0  0  0  0  0  0  0  0  0  0
   39.9160   33.4270   42.2730 C   0  0  0  0  0  0  0  0  0  0  0  0
   40.4030   32.3520   42.7930 O   0  0  0  0  0  0  0  0  0  0  0  0
   40.8480   34.3440   42.3470 C   0  0  0  0  0  0  0  0  0  0  0  0
   41.4800   34.8300   41.0340 C   0  0  0  0  0  0  0  0  0  0  0  0
   42.8290   35.1940   41.5080 C   0  0  0  0  0  0  0  0  0  0  0  0
   42.3760   35.7750   42.8480 C   0  0  0  0  0  0  0  0  0  0  0  0
   41.3510   34.8870   43.4710 N   0  0  0  0  0  0  0  0  0  0  0  0
   41.0140   34.6870   44.7540 C   0  0  0  0  0  0  0  0  0  0  0  0
   39.8720   34.4010   45.0870 O   0  0  0  0  0  0  0  0  0  0  0  0
   42.4780   34.9530   45.6170 C   0  0  2  0  0  0  0  0  0  0  0  0
   42.9610   33.9310   45.8600 C   0  0  0  0  0  0  0  0  0  0  0  0
   41.9940   35.7640   46.8270 C   0  0  0  0  0  0  0  0  0  0  0  0
   42.9730   36.4110   48.1790 S   0  0  0  0  0  0  0  0  0  0  0  0
   41.6144   33.5588   42.4252 H   0  0  0  0  0  0  0  0  0  0  0  0
   41.5160   34.0304   40.2795 H   0  0  0  0  0  0  0  0  0  0  0  0
   40.9334   35.6430   40.5338 H   0  0  0  0  0  0  0  0  0  0  0  0
   43.4884   34.3213   41.6243 H   0  0  0  0  0  0  0  0  0  0  0  0
   43.4312   35.8446   40.8568 H   0  0  0  0  0  0  0  0  0  0  0  0
   43.2427   35.8580   43.5203 H   0  0  0  0  0  0  0  0  0  0  0  0
   41.9368   36.7694   42.6796 H   0  0  0  0  0  0  0  0  0  0  0  0
   43.2750   35.4962   45.0881 H   0  0  0  0  0  0  0  0  0  0  0  0
   43.0210   33.8040   46.9510 H   0  0  0  0  0  0  0  0  0  0  0  0
   42.3487   33.1246   45.4301 H   0  0  0  0  0  0  0  0  0  0  0  0
   43.9728   33.8921   45.4301 H   0  0  0  0  0  0  0  0  0  0  0  0
   41.5008   36.6460   46.3925 H   0  0  0  0  0  0  0  0  0  0  0  0
   41.4710   34.9616   47.3680 H   0  0  0  0  0  0  0  0  0  0  0  0
   42.4089   36.0382   49.3705 H   0  0  0  0  0  0  0  0  0  0  0  0
  2  1  2  0
  3  2  1  0
  4  2  1  0
  5  4  1  0
  6  5  1  0
  7  6  1  0
  8  7  1  0
  8  4  1  0
  9  8  1  0
 10  9  2  0
 11  9  1  0
 12 11  1  0
 13 11  1  0
 14 13  1  0
  4 15  1  0
  5 16  1  0
  5 17  1  0
  6 18  1  0
  6 19  1  0
  7 20  1  0
  7 21  1  0
 11 22  1  6
 12 23  1  0
 12 24  1  0
 12 25  1  0
 13 26  1  0
 13 27  1  0
 14 28  1  0
M  CHG  1   3  -1
M  END
$$$$
