codeína
     RDKit          3D

 44 48  0  0  0  0  0  0  0  0999 V2000
  145.6920  133.9680  134.5330 C   0  0  0  0  0  0  0  0  0  0  0  0
  144.3150  134.3150  134.4890 O   0  0  0  0  0  0  0  0  0  0  0  0
  143.4160  133.2930  134.5370 C   0  0  0  0  0  0  0  0  0  0  0  0
  143.7100  131.9220  134.5630 C   0  0  0  0  0  0  0  0  0  0  0  0
  142.6830  130.9480  134.5360 C   0  0  0  0  0  0  0  0  0  0  0  0
  141.3430  131.3330  134.5360 C   0  0  0  0  0  0  0  0  0  0  0  0
  141.0810  132.6860  134.5860 C   0  0  0  0  0  0  0  0  0  0  0  0
  142.0800  133.6410  134.5250 C   0  0  0  0  0  0  0  0  0  0  0  0
  141.5570  134.9080  134.3490 O   0  0  0  0  0  0  0  0  0  0  0  0
  140.1850  134.6400  133.8970 C   0  0  1  0  0  0  0  0  0  0  0  0
  140.1260  134.5870  132.3350 C   0  0  1  0  0  0  0  0  0  0  0  0
  141.4180  134.5360  131.7340 O   0  0  0  0  0  0  0  0  0  0  0  0
  139.3740  133.4240  131.7540 C   0  0  0  0  0  0  0  0  0  0  0  0
  138.7460  132.4680  132.4520 C   0  0  0  0  0  0  0  0  0  0  0  0
  138.6790  132.4660  133.9520 C   0  0  1  0  0  0  0  0  0  0  0  0
  138.8100  131.0600  134.6310 C   0  0  1  0  0  0  0  0  0  0  0  0
  140.1900  130.3920  134.3370 C   0  0  0  0  0  0  0  0  0  0  0  0
  138.5180  131.2120  136.1640 N   0  0  0  0  0  0  0  0  0  0  0  0
  139.3880  130.4300  137.1170 C   0  0  0  0  0  0  0  0  0  0  0  0
  138.3160  132.6350  136.6420 C   0  0  0  0  0  0  0  0  0  0  0  0
  139.3750  133.5930  136.1070 C   0  0  0  0  0  0  0  0  0  0  0  0
  139.7400  133.3500  134.6190 C   0  0  1  0  0  0  0  0  0  0  0  0
  146.0162  133.8863  135.5810 H   0  0  0  0  0  0  0  0  0  0  0  0
  145.8435  133.0036  134.0261 H   0  0  0  0  0  0  0  0  0  0  0  0
  146.2824  134.7454  134.0261 H   0  0  0  0  0  0  0  0  0  0  0  0
  144.7600  131.5968  134.6052 H   0  0  0  0  0  0  0  0  0  0  0  0
  142.9441  129.8797  134.5149 H   0  0  0  0  0  0  0  0  0  0  0  0
  139.4768  135.4404  134.1573 H   0  0  0  0  0  0  0  0  0  0  0  0
  139.5926  135.5214  132.1059 H   0  0  0  0  0  0  0  0  0  0  0  0
  141.8030  133.6650  131.9530 H   0  0  0  0  0  0  0  0  0  0  0  0
  139.3353  133.3504  130.6571 H   0  0  0  0  0  0  0  0  0  0  0  0
  138.2585  131.6493  131.9024 H   0  0  0  0  0  0  0  0  0  0  0  0
  137.6652  132.8611  134.1136 H   0  0  0  0  0  0  0  0  0  0  0  0
  138.0661  130.3740  134.1997 H   0  0  0  0  0  0  0  0  0  0  0  0
  140.3162  129.5329  135.0123 H   0  0  0  0  0  0  0  0  0  0  0  0
  140.1915  130.0830  133.2813 H   0  0  0  0  0  0  0  0  0  0  0  0
  137.5930  130.7780  136.2820 H   0  0  0  0  0  0  0  0  0  0  0  0
  139.1123  130.6778  138.1526 H   0  0  0  0  0  0  0  0  0  0  0  0
  139.2426  129.3530  136.9466 H   0  0  0  0  0  0  0  0  0  0  0  0
  140.4434  130.6890  136.9466 H   0  0  0  0  0  0  0  0  0  0  0  0
  137.3271  132.9814  136.3071 H   0  0  0  0  0  0  0  0  0  0  0  0
  138.3964  132.6309  137.7390 H   0  0  0  0  0  0  0  0  0  0  0  0
  138.9967  134.6209  136.2085 H   0  0  0  0  0  0  0  0  0  0  0  0
  140.2892  133.4227  136.6945 H   0  0  0  0  0  0  0  0  0  0  0  0
  1  2  1  0
  2  3  1  0
  3  4  1  0
  4  5  2  0
  5  6  1  0
  6  7  2  0
  7  8  1  0
  8  9  1  0
  9 10  1  0
 10 11  1  0
 11 12  1  0
 11 13  1  0
 13 14  2  0
 14 15  1  0
 15 16  1  0
 16 17  1  0
 16 18  1  0
 18 19  1  0
 18 20  1  0
 20 21  1  0
 22 21  1  1
  8  3  2  0
 22 10  1  0
 17  6  1  0
 22  7  1  0
 22 15  1  0
  1 23  1  0
  1 24  1  0
  1 25  1  0
  4 26  1  0
  5 27  1  0
 10 28  1  1
 11 29  1  6
 12 30  1  0
 13 31  1  0
 14 32  1  0
 15 33  1  6
 16 34  1  6
 17 35  1  0
 17 36  1  0
 18 37  1  0
 19 38  1  0
 19 39  1  0
 19 40  1  0
 20 41  1  0
 20 42  1  0
 21 43  1  0
 21 44  1  0
M  CHG  1  18   1
M  END
>  <meeko>  (1) 
{"is_sidechain": false}

>  <vina_kcal_mol>  (1) 
-7.746

$$$$
