fentanilo
     RDKit          3D

 54 56  0  0  0  0  0  0  0  0999 V2000
  141.2150  126.0780  136.0800 C   0  0  0  0  0  0  0  0  0  0  0  0
  141.6360  126.6280  134.7280 C   0  0  0  0  0  0  0  0  0  0  0  0
  140.4620  126.6800  133.7630 C   0  0  0  0  0  0  0  0  0  0  0  0
  140.0030  127.7820  133.4600 O   0  0  0  0  0  0  0  0  0  0  0  0
  140.0030  125.4650  133.2130 N   0  0  0  0  0  0  0  0  0  0  0  0
  140.4720  125.1390  131.8990 C   0  0  0  0  0  0  0  0  0  0  0  0
  141.7100  124.5140  131.7070 C   0  0  0  0  0  0  0  0  0  0  0  0
  142.1580  124.2190  130.4190 C   0  0  0  0  0  0  0  0  0  0  0  0
  141.3660  124.5340  129.3150 C   0  0  0  0  0  0  0  0  0  0  0  0
  140.1200  125.1290  129.5000 C   0  0  0  0  0  0  0  0  0  0  0  0
  139.6700  125.4240  130.7880 C   0  0  0  0  0  0  0  0  0  0  0  0
  138.7240  124.8310  133.6360 C   0  0  0  0  0  0  0  0  0  0  0  0
  137.8780  125.6510  134.6260 C   0  0  0  0  0  0  0  0  0  0  0  0
  136.5810  124.9340  134.9660 C   0  0  0  0  0  0  0  0  0  0  0  0
  136.8690  123.5610  135.5250 N   0  0  0  0  0  0  0  0  0  0  0  0
  137.4040  123.5910  136.9580 C   0  0  0  0  0  0  0  0  0  0  0  0
  136.2780  123.6650  138.0010 C   0  0  0  0  0  0  0  0  0  0  0  0
  135.9650  125.0770  138.4350 C   0  0  0  0  0  0  0  0  0  0  0  0
  134.6790  125.6090  138.2600 C   0  0  0  0  0  0  0  0  0  0  0  0
  134.3830  126.8980  138.7040 C   0  0  0  0  0  0  0  0  0  0  0  0
  135.3650  127.6680  139.3210 C   0  0  0  0  0  0  0  0  0  0  0  0
  136.6510  127.1560  139.4830 C   0  0  0  0  0  0  0  0  0  0  0  0
  136.9520  125.8670  139.0410 C   0  0  0  0  0  0  0  0  0  0  0  0
  137.6610  122.7210  134.5560 C   0  0  0  0  0  0  0  0  0  0  0  0
  138.9630  123.4080  134.1740 C   0  0  0  0  0  0  0  0  0  0  0  0
  141.6744  126.6782  136.8792 H   0  0  0  0  0  0  0  0  0  0  0  0
  140.1197  126.1247  136.1699 H   0  0  0  0  0  0  0  0  0  0  0  0
  141.5460  125.0329  136.1699 H   0  0  0  0  0  0  0  0  0  0  0  0
  142.0343  127.6444  134.8629 H   0  0  0  0  0  0  0  0  0  0  0  0
  142.4032  125.9623  134.3059 H   0  0  0  0  0  0  0  0  0  0  0  0
  142.3326  124.2542  132.5759 H   0  0  0  0  0  0  0  0  0  0  0  0
  143.1365  123.7377  130.2742 H   0  0  0  0  0  0  0  0  0  0  0  0
  141.7249  124.3128  128.2990 H   0  0  0  0  0  0  0  0  0  0  0  0
  139.4901  125.3666  128.6301 H   0  0  0  0  0  0  0  0  0  0  0  0
  138.6804  125.8826  130.9304 H   0  0  0  0  0  0  0  0  0  0  0  0
  138.1214  124.7861  132.7168 H   0  0  0  0  0  0  0  0  0  0  0  0
  138.4555  125.8053  135.5495 H   0  0  0  0  0  0  0  0  0  0  0  0
  137.6307  126.6151  134.1577 H   0  0  0  0  0  0  0  0  0  0  0  0
  136.0277  125.5210  135.7139 H   0  0  0  0  0  0  0  0  0  0  0  0
  135.9815  124.8276  134.0499 H   0  0  0  0  0  0  0  0  0  0  0  0
  135.9440  123.1080  135.6030 H   0  0  0  0  0  0  0  0  0  0  0  0
  137.9907  122.6776  137.1354 H   0  0  0  0  0  0  0  0  0  0  0  0
  138.0225  124.4941  137.0668 H   0  0  0  0  0  0  0  0  0  0  0  0
  135.3692  123.2224  137.5672 H   0  0  0  0  0  0  0  0  0  0  0  0
  136.6187  123.1160  138.8912 H   0  0  0  0  0  0  0  0  0  0  0  0
  133.8998  125.0067  137.7701 H   0  0  0  0  0  0  0  0  0  0  0  0
  133.3712  127.3069  138.5662 H   0  0  0  0  0  0  0  0  0  0  0  0
  135.1261  128.6798  139.6804 H   0  0  0  0  0  0  0  0  0  0  0  0
  137.4300  127.7689  139.9600 H   0  0  0  0  0  0  0  0  0  0  0  0
  137.9693  125.4686  139.1688 H   0  0  0  0  0  0  0  0  0  0  0  0
  137.8897  121.7521  135.0239 H   0  0  0  0  0  0  0  0  0  0  0  0
  137.0607  122.5781  133.6453 H   0  0  0  0  0  0  0  0  0  0  0  0
  139.6081  123.4674  135.0630 H   0  0  0  0  0  0  0  0  0  0  0  0
  139.4395  122.8176  133.3776 H   0  0  0  0  0  0  0  0  0  0  0  0
  1  2  1  0
  2  3  1  0
  3  4  2  0
  3  5  1  0
  5  6  1  0
  6  7  2  0
  7  8  1  0
  8  9  2  0
  9 10  1  0
 10 11  2  0
  5 12  1  0
 12 13  1  0
 13 14  1  0
 14 15  1  0
 15 16  1  0
 16 17  1  0
 17 18  1  0
 18 19  2  0
 19 20  1  0
 20 21  2  0
 21 22  1  0
 22 23  2  0
 15 24  1  0
 24 25  1  0
 11  6  1  0
 25 12  1  0
 23 18  1  0
  1 26  1  0
  1 27  1  0
  1 28  1  0
  2 29  1  0
  2 30  1  0
  7 31  1  0
  8 32  1  0
  9 33  1  0
 10 34  1  0
 11 35  1  0
 12 36  1  0
 13 37  1  0
 13 38  1  0
 14 39  1  0
 14 40  1  0
 15 41  1  0
 16 42  1  0
 16 43  1  0
 17 44  1  0
 17 45  1  0
 19 46  1  0
 20 47  1  0
 21 48  1  0
 22 49  1  0
 23 50  1  0
 24 51  1  0
 24 52  1  0
 25 53  1  0
 25 54  1  0
M  CHG  1  15   1
M  END
>  <meeko>  (1) 
{"is_sidechain": false}

>  <vina_kcal_mol>  (1) 
-8.806

$$$$
