heroína
     RDKit          3D

 51 55  0  0  0  0  0  0  0  0999 V2000
  136.1820  123.0450  137.7970 C   0  0  0  0  0  0  0  0  0  0  0  0
  136.9300  124.1290  137.0820 C   0  0  0  0  0  0  0  0  0  0  0  0
  137.7730  124.8470  137.6060 O   0  0  0  0  0  0  0  0  0  0  0  0
  136.5220  124.1510  135.7530 O   0  0  0  0  0  0  0  0  0  0  0  0
  137.5810  124.0020  134.8700 C   0  0  0  0  0  0  0  0  0  0  0  0
  138.0080  122.7180  134.5130 C   0  0  0  0  0  0  0  0  0  0  0  0
  139.0980  122.5490  133.6370 C   0  0  0  0  0  0  0  0  0  0  0  0
  139.7250  123.6630  133.0710 C   0  0  0  0  0  0  0  0  0  0  0  0
  139.2090  124.9120  133.3810 C   0  0  0  0  0  0  0  0  0  0  0  0
  138.2020  125.0940  134.3010 C   0  0  0  0  0  0  0  0  0  0  0  0
  137.9720  126.4140  134.5700 O   0  0  0  0  0  0  0  0  0  0  0  0
  139.1380  127.1150  134.0120 C   0  0  1  0  0  0  0  0  0  0  0  0
  140.1830  127.4920  135.1100 C   0  0  1  0  0  0  0  0  0  0  0  0
  139.6380  127.4300  136.4330 O   0  0  0  0  0  0  0  0  0  0  0  0
  139.3240  128.6360  136.9760 C   0  0  0  0  0  0  0  0  0  0  0  0
  140.2740  128.9760  138.0830 C   0  0  0  0  0  0  0  0  0  0  0  0
  138.3890  129.3420  136.6210 O   0  0  0  0  0  0  0  0  0  0  0  0
  141.4510  126.6720  135.0970 C   0  0  0  0  0  0  0  0  0  0  0  0
  141.9420  126.0800  133.9960 C   0  0  0  0  0  0  0  0  0  0  0  0
  141.2130  126.1550  132.6800 C   0  0  1  0  0  0  0  0  0  0  0  0
  141.4900  124.9570  131.7190 C   0  0  1  0  0  0  0  0  0  0  0  0
  140.9910  123.5810  132.2620 C   0  0  0  0  0  0  0  0  0  0  0  0
  140.8440  125.3180  130.3600 N   0  0  0  0  0  0  0  0  0  0  0  0
  141.2280  124.3900  129.2360 C   0  0  0  0  0  0  0  0  0  0  0  0
  139.3490  125.5360  130.4220 C   0  0  0  0  0  0  0  0  0  0  0  0
  139.0020  126.5370  131.5220 C   0  0  0  0  0  0  0  0  0  0  0  0
  139.6900  126.2300  132.8680 C   0  0  1  0  0  0  0  0  0  0  0  0
  136.2800  123.1870  138.8834 H   0  0  0  0  0  0  0  0  0  0  0  0
  135.1192  123.0862  137.5162 H   0  0  0  0  0  0  0  0  0  0  0  0
  136.5977  122.0660  137.5162 H   0  0  0  0  0  0  0  0  0  0  0  0
  137.4899  121.8364  134.9185 H   0  0  0  0  0  0  0  0  0  0  0  0
  139.4571  121.5372  133.3975 H   0  0  0  0  0  0  0  0  0  0  0  0
  138.8560  128.0933  133.5956 H   0  0  0  0  0  0  0  0  0  0  0  0
  140.4454  128.5268  134.8447 H   0  0  0  0  0  0  0  0  0  0  0  0
  139.7849  128.8010  139.0526 H   0  0  0  0  0  0  0  0  0  0  0  0
  141.1700  128.3427  138.0047 H   0  0  0  0  0  0  0  0  0  0  0  0
  140.5647  130.0340  138.0047 H   0  0  0  0  0  0  0  0  0  0  0  0
  142.0028  126.5530  136.0411 H   0  0  0  0  0  0  0  0  0  0  0  0
  142.8932  125.5308  134.0563 H   0  0  0  0  0  0  0  0  0  0  0  0
  141.6079  127.0752  132.2247 H   0  0  0  0  0  0  0  0  0  0  0  0
  142.5761  124.8150  131.6176 H   0  0  0  0  0  0  0  0  0  0  0  0
  140.8107  122.9160  131.4045 H   0  0  0  0  0  0  0  0  0  0  0  0
  141.7741  123.2026  132.9354 H   0  0  0  0  0  0  0  0  0  0  0  0
  141.2530  126.2250  130.0910 H   0  0  0  0  0  0  0  0  0  0  0  0
  141.6171  123.4497  129.6536 H   0  0  0  0  0  0  0  0  0  0  0  0
  140.3437  124.1781  128.6171 H   0  0  0  0  0  0  0  0  0  0  0  0
  142.0035  124.8650  128.6171 H   0  0  0  0  0  0  0  0  0  0  0  0
  138.9990  125.9250  129.4544 H   0  0  0  0  0  0  0  0  0  0  0  0
  138.8576  124.5773  130.6441 H   0  0  0  0  0  0  0  0  0  0  0  0
  139.3126  127.5394  131.1921 H   0  0  0  0  0  0  0  0  0  0  0  0
  137.9167  126.4725  131.6896 H   0  0  0  0  0  0  0  0  0  0  0  0
  1  2  1  0
  2  3  2  0
  2  4  1  0
  4  5  1  0
  5  6  1  0
  6  7  2  0
  7  8  1  0
  8  9  2  0
  9 10  1  0
 10 11  1  0
 11 12  1  0
 12 13  1  0
 13 14  1  0
 14 15  1  0
 15 16  1  0
 15 17  2  0
 13 18  1  0
 18 19  2  0
 19 20  1  0
 20 21  1  0
 21 22  1  0
 21 23  1  0
 23 24  1  0
 23 25  1  0
 25 26  1  0
 27 26  1  6
 10  5  2  0
 27 12  1  0
 22  8  1  0
 27  9  1  0
 27 20  1  0
  1 28  1  0
  1 29  1  0
  1 30  1  0
  6 31  1  0
  7 32  1  0
 12 33  1  6
 13 34  1  6
 16 35  1  0
 16 36  1  0
 16 37  1  0
 18 38  1  0
 19 39  1  0
 20 40  1  6
 21 41  1  6
 22 42  1  0
 22 43  1  0
 23 44  1  0
 24 45  1  0
 24 46  1  0
 24 47  1  0
 25 48  1  0
 25 49  1  0
 26 50  1  0
 26 51  1  0
M  CHG  1  23   1
M  END
>  <meeko>  (1) 
{"is_sidechain": false}

>  <vina_kcal_mol>  (1) 
-8.452

$$$$
