metadona
     RDKit          3D

 51 52  0  0  0  0  0  0  0  0999 V2000
  136.9360  127.7970  131.8840 C   0  0  0  0  0  0  0  0  0  0  0  0
  138.0960  127.7270  132.8630 C   0  0  0  0  0  0  0  0  0  0  0  0
  138.3700  126.2970  133.3250 C   0  0  0  0  0  0  0  0  0  0  0  0
  137.4410  125.5230  133.5850 O   0  0  0  0  0  0  0  0  0  0  0  0
  139.8720  125.8360  133.4720 C   0  0  0  0  0  0  0  0  0  0  0  0
  139.8440  124.5850  134.4470 C   0  0  0  0  0  0  0  0  0  0  0  0
  138.7310  123.5290  134.2760 C   0  0  0  0  0  0  0  0  0  0  0  0
  139.1600  122.2350  133.5870 C   0  0  0  0  0  0  0  0  0  0  0  0
  138.1210  123.1540  135.6480 N   0  0  0  0  0  0  0  0  0  0  0  0
  138.7140  121.9460  136.3250 C   0  0  0  0  0  0  0  0  0  0  0  0
  138.0440  124.3280  136.5950 C   0  0  0  0  0  0  0  0  0  0  0  0
  140.3900  125.2680  132.1170 C   0  0  0  0  0  0  0  0  0  0  0  0
  139.7030  125.4760  130.9040 C   0  0  0  0  0  0  0  0  0  0  0  0
  140.2120  125.0100  129.6890 C   0  0  0  0  0  0  0  0  0  0  0  0
  141.4310  124.3440  129.6530 C   0  0  0  0  0  0  0  0  0  0  0  0
  142.1460  124.1510  130.8290 C   0  0  0  0  0  0  0  0  0  0  0  0
  141.6380  124.6160  132.0460 C   0  0  0  0  0  0  0  0  0  0  0  0
  140.6210  127.0610  134.0520 C   0  0  0  0  0  0  0  0  0  0  0  0
  140.6180  127.3520  135.4310 C   0  0  0  0  0  0  0  0  0  0  0  0
  141.3350  128.4310  135.9560 C   0  0  0  0  0  0  0  0  0  0  0  0
  142.1080  129.2270  135.1220 C   0  0  0  0  0  0  0  0  0  0  0  0
  142.1840  128.9290  133.7680 C   0  0  0  0  0  0  0  0  0  0  0  0
  141.4640  127.8500  133.2430 C   0  0  0  0  0  0  0  0  0  0  0  0
  135.9891  127.8541  132.4409 H   0  0  0  0  0  0  0  0  0  0  0  0
  137.0437  128.6903  131.2512 H   0  0  0  0  0  0  0  0  0  0  0  0
  136.9355  126.8973  131.2512 H   0  0  0  0  0  0  0  0  0  0  0  0
  138.9986  128.1208  132.3728 H   0  0  0  0  0  0  0  0  0  0  0  0
  137.8304  128.3246  133.7475 H   0  0  0  0  0  0  0  0  0  0  0  0
  140.8049  124.0628  134.3293 H   0  0  0  0  0  0  0  0  0  0  0  0
  139.6419  125.0244  135.4350 H   0  0  0  0  0  0  0  0  0  0  0  0
  137.9982  124.0179  133.6173 H   0  0  0  0  0  0  0  0  0  0  0  0
  139.4102  121.4804  134.3472 H   0  0  0  0  0  0  0  0  0  0  0  0
  138.3369  121.8638  132.9588 H   0  0  0  0  0  0  0  0  0  0  0  0
  140.0419  122.4290  132.9588 H   0  0  0  0  0  0  0  0  0  0  0  0
  137.1390  122.9120  135.4580 H   0  0  0  0  0  0  0  0  0  0  0  0
  138.6530  122.0704  137.4162 H   0  0  0  0  0  0  0  0  0  0  0  0
  138.1548  121.0470  136.0266 H   0  0  0  0  0  0  0  0  0  0  0  0
  139.7673  121.8385  136.0266 H   0  0  0  0  0  0  0  0  0  0  0  0
  138.0679  123.9641  137.6328 H   0  0  0  0  0  0  0  0  0  0  0  0
  138.9003  124.9962  136.4210 H   0  0  0  0  0  0  0  0  0  0  0  0
  137.1078  124.8787  136.4210 H   0  0  0  0  0  0  0  0  0  0  0  0
  138.7453  126.0170  130.9140 H   0  0  0  0  0  0  0  0  0  0  0  0
  139.6466  125.1707  128.7592 H   0  0  0  0  0  0  0  0  0  0  0  0
  141.8285  123.9710  128.6975 H   0  0  0  0  0  0  0  0  0  0  0  0
  143.1148  123.6307  130.8024 H   0  0  0  0  0  0  0  0  0  0  0  0
  142.2235  124.4702  132.9658 H   0  0  0  0  0  0  0  0  0  0  0  0
  140.0362  126.7134  136.1119 H   0  0  0  0  0  0  0  0  0  0  0  0
  141.2865  128.6499  137.0329 H   0  0  0  0  0  0  0  0  0  0  0  0
  142.6567  130.0882  135.5310 H   0  0  0  0  0  0  0  0  0  0  0  0
  142.8122  129.5430  133.1059 H   0  0  0  0  0  0  0  0  0  0  0  0
  141.5580  127.6117  132.1732 H   0  0  0  0  0  0  0  0  0  0  0  0
  1  2  1  0
  2  3  1  0
  3  4  2  0
  3  5  1  0
  5  6  1  0
  6  7  1  0
  7  8  1  0
  7  9  1  0
  9 10  1  0
  9 11  1  0
  5 12  1  0
 12 13  2  0
 13 14  1  0
 14 15  2  0
 15 16  1  0
 16 17  2  0
  5 18  1  0
 18 19  2  0
 19 20  1  0
 20 21  2  0
 21 22  1  0
 22 23  2  0
 17 12  1  0
 23 18  1  0
  1 24  1  0
  1 25  1  0
  1 26  1  0
  2 27  1  0
  2 28  1  0
  6 29  1  0
  6 30  1  0
  7 31  1  0
  8 32  1  0
  8 33  1  0
  8 34  1  0
  9 35  1  0
 10 36  1  0
 10 37  1  0
 10 38  1  0
 11 39  1  0
 11 40  1  0
 11 41  1  0
 13 42  1  0
 14 43  1  0
 15 44  1  0
 16 45  1  0
 17 46  1  0
 19 47  1  0
 20 48  1  0
 21 49  1  0
 22 50  1  0
 23 51  1  0
M  CHG  1   9   1
M  END
>  <meeko>  (1) 
{"is_sidechain": false}

>  <vina_kcal_mol>  (1) 
-7.696

$$$$
