morfina
     RDKit          3D

 41 45  0  0  0  0  0  0  0  0999 V2000
  136.5490  125.0070  136.0630 C   0  0  0  0  0  0  0  0  0  0  0  0
  137.5430  125.4600  135.0280 N   0  0  0  0  0  0  0  0  0  0  0  0
  136.8710  125.9260  133.7650 C   0  0  0  0  0  0  0  0  0  0  0  0
  137.8990  126.4600  132.7650 C   0  0  0  0  0  0  0  0  0  0  0  0
  139.2270  125.6560  132.7510 C   0  0  2  0  0  0  0  0  0  0  0  0
  140.2340  126.3700  133.6010 C   0  0  0  0  0  0  0  0  0  0  0  0
  140.5430  126.1320  134.9300 C   0  0  0  0  0  0  0  0  0  0  0  0
  141.5220  126.9420  135.5110 C   0  0  0  0  0  0  0  0  0  0  0  0
  142.1780  127.9320  134.7450 C   0  0  0  0  0  0  0  0  0  0  0  0
  141.8980  128.0830  133.3850 C   0  0  0  0  0  0  0  0  0  0  0  0
  142.5740  128.9640  132.6030 O   0  0  0  0  0  0  0  0  0  0  0  0
  140.9380  127.2710  132.8260 C   0  0  0  0  0  0  0  0  0  0  0  0
  140.6380  127.1370  131.4850 O   0  0  0  0  0  0  0  0  0  0  0  0
  139.9940  125.8180  131.4230 C   0  0  1  0  0  0  0  0  0  0  0  0
  141.0540  124.7060  131.1230 C   0  0  1  0  0  0  0  0  0  0  0  0
  142.3940  125.1590  131.2930 O   0  0  0  0  0  0  0  0  0  0  0  0
  140.9460  123.4700  131.9690 C   0  0  0  0  0  0  0  0  0  0  0  0
  140.0480  123.2580  132.9420 C   0  0  0  0  0  0  0  0  0  0  0  0
  138.9730  124.2460  133.2900 C   0  0  1  0  0  0  0  0  0  0  0  0
  138.6890  124.4170  134.8190 C   0  0  1  0  0  0  0  0  0  0  0  0
  139.9210  124.9430  135.6110 C   0  0  0  0  0  0  0  0  0  0  0  0
  136.9559  125.1924  137.0680 H   0  0  0  0  0  0  0  0  0  0  0  0
  135.6098  125.5660  135.9388 H   0  0  0  0  0  0  0  0  0  0  0  0
  136.3547  123.9314  135.9388 H   0  0  0  0  0  0  0  0  0  0  0  0
  137.9820  126.3100  135.4160 H   0  0  0  0  0  0  0  0  0  0  0  0
  136.3319  125.0814  133.3111 H   0  0  0  0  0  0  0  0  0  0  0  0
  136.1718  126.7368  134.0173 H   0  0  0  0  0  0  0  0  0  0  0  0
  137.4579  126.4207  131.7581 H   0  0  0  0  0  0  0  0  0  0  0  0
  138.1462  127.4866  133.0732 H   0  0  0  0  0  0  0  0  0  0  0  0
  141.7837  126.8083  136.5710 H   0  0  0  0  0  0  0  0  0  0  0  0
  142.9169  128.5906  135.2249 H   0  0  0  0  0  0  0  0  0  0  0  0
  143.0580  128.4800  131.9130 H   0  0  0  0  0  0  0  0  0  0  0  0
  139.2754  125.7223  130.5957 H   0  0  0  0  0  0  0  0  0  0  0  0
  140.8247  124.4601  130.0757 H   0  0  0  0  0  0  0  0  0  0  0  0
  142.9040  124.8370  130.5240 H   0  0  0  0  0  0  0  0  0  0  0  0
  141.6696  122.6651  131.7726 H   0  0  0  0  0  0  0  0  0  0  0  0
  140.1016  122.3179  133.5106 H   0  0  0  0  0  0  0  0  0  0  0  0
  138.1027  123.7837  132.8014 H   0  0  0  0  0  0  0  0  0  0  0  0
  138.4209  123.4176  135.1924 H   0  0  0  0  0  0  0  0  0  0  0  0
  139.5988  125.2367  136.6209 H   0  0  0  0  0  0  0  0  0  0  0  0
  140.6708  124.1396  135.6595 H   0  0  0  0  0  0  0  0  0  0  0  0
  1  2  1  0
  2  3  1  0
  3  4  1  0
  5  4  1  6
  5  6  1  0
  6  7  2  0
  7  8  1  0
  8  9  2  0
  9 10  1  0
 10 11  1  0
 10 12  2  0
 12 13  1  0
 13 14  1  0
 14 15  1  0
 15 16  1  0
 15 17  1  0
 17 18  2  0
 18 19  1  0
 19 20  1  0
 20 21  1  0
 20  2  1  0
 14  5  1  0
 19  5  1  0
 12  6  1  0
 21  7  1  0
  1 22  1  0
  1 23  1  0
  1 24  1  0
  2 25  1  0
  3 26  1  0
  3 27  1  0
  4 28  1  0
  4 29  1  0
  8 30  1  0
  9 31  1  0
 11 32  1  0
 14 33  1  6
 15 34  1  6
 16 35  1  0
 17 36  1  0
 18 37  1  0
 19 38  1  6
 20 39  1  1
 21 40  1  0
 21 41  1  0
M  CHG  1   2   1
M  END
>  <meeko>  (1) 
{"is_sidechain": false}

>  <vina_kcal_mol>  (1) 
-7.77

$$$$
