naloxona
     RDKit          3D

 46 50  0  0  0  0  0  0  0  0999 V2000
  141.6690  124.6950  132.2700 C   0  0  0  0  0  0  0  0  0  0  0  0
  140.3360  124.7780  132.1430 C   0  0  0  0  0  0  0  0  0  0  0  0
  139.4910  125.8490  132.7520 C   0  0  0  0  0  0  0  0  0  0  0  0
  138.5450  125.3060  133.7970 N   0  0  0  0  0  0  0  0  0  0  0  0
  137.1640  125.8820  133.6710 C   0  0  0  0  0  0  0  0  0  0  0  0
  136.2460  125.3580  134.7690 C   0  0  0  0  0  0  0  0  0  0  0  0
  136.8880  125.2980  136.1770 C   0  0  2  0  0  0  0  0  0  0  0  0
  137.2170  123.8860  136.5380 C   0  0  0  0  0  0  0  0  0  0  0  0
  138.3780  123.1890  136.2320 C   0  0  0  0  0  0  0  0  0  0  0  0
  138.4630  121.8630  136.6680 C   0  0  0  0  0  0  0  0  0  0  0  0
  137.4250  121.2970  137.4350 C   0  0  0  0  0  0  0  0  0  0  0  0
  136.3230  122.0670  137.8140 C   0  0  0  0  0  0  0  0  0  0  0  0
  135.3510  121.5750  138.6250 O   0  0  0  0  0  0  0  0  0  0  0  0
  136.2500  123.3710  137.3760 C   0  0  0  0  0  0  0  0  0  0  0  0
  135.3330  124.3120  137.7660 O   0  0  0  0  0  0  0  0  0  0  0  0
  135.8280  125.5700  137.2690 C   0  0  1  0  0  0  0  0  0  0  0  0
  136.4380  126.4810  138.3300 C   0  0  0  0  0  0  0  0  0  0  0  0
  135.9210  127.5500  138.6460 O   0  0  0  0  0  0  0  0  0  0  0  0
  137.8060  126.0980  138.8280 C   0  0  0  0  0  0  0  0  0  0  0  0
  138.8210  126.1850  137.6830 C   0  0  0  0  0  0  0  0  0  0  0  0
  138.2050  126.0920  136.2540 C   0  0  2  0  0  0  0  0  0  0  0  0
  137.9770  127.4410  135.8070 O   0  0  0  0  0  0  0  0  0  0  0  0
  139.1800  125.3880  135.2260 C   0  0  1  0  0  0  0  0  0  0  0  0
  139.5440  123.9250  135.6230 C   0  0  0  0  0  0  0  0  0  0  0  0
  142.2172  123.8720  131.7882 H   0  0  0  0  0  0  0  0  0  0  0  0
  142.2137  125.4499  132.8560 H   0  0  0  0  0  0  0  0  0  0  0  0
  139.8297  124.0031  131.5488 H   0  0  0  0  0  0  0  0  0  0  0  0
  140.1490  126.5941  133.2231 H   0  0  0  0  0  0  0  0  0  0  0  0
  138.8862  126.2980  131.9504 H   0  0  0  0  0  0  0  0  0  0  0  0
  138.4350  124.3120  133.5610 H   0  0  0  0  0  0  0  0  0  0  0  0
  137.2241  126.9778  133.7461 H   0  0  0  0  0  0  0  0  0  0  0  0
  136.7490  125.5821  132.6974 H   0  0  0  0  0  0  0  0  0  0  0  0
  135.3656  126.0153  134.8219 H   0  0  0  0  0  0  0  0  0  0  0  0
  135.9974  124.3215  134.4970 H   0  0  0  0  0  0  0  0  0  0  0  0
  139.3451  121.2583  136.4108 H   0  0  0  0  0  0  0  0  0  0  0  0
  137.4831  120.2410  137.7374 H   0  0  0  0  0  0  0  0  0  0  0  0
  135.0650  120.7020  138.3090 H   0  0  0  0  0  0  0  0  0  0  0  0
  134.9514  126.1044  136.8741 H   0  0  0  0  0  0  0  0  0  0  0  0
  138.1059  126.7837  139.6342 H   0  0  0  0  0  0  0  0  0  0  0  0
  137.7771  125.0664  139.2089 H   0  0  0  0  0  0  0  0  0  0  0  0
  139.3488  127.1465  137.7661 H   0  0  0  0  0  0  0  0  0  0  0  0
  139.4847  125.3144  137.7911 H   0  0  0  0  0  0  0  0  0  0  0  0
  138.7720  127.8010  135.3610 H   0  0  0  0  0  0  0  0  0  0  0  0
  140.0843  126.0142  135.2354 H   0  0  0  0  0  0  0  0  0  0  0  0
  139.8711  123.3853  134.7221 H   0  0  0  0  0  0  0  0  0  0  0  0
  140.3434  123.9707  136.3773 H   0  0  0  0  0  0  0  0  0  0  0  0
  1  2  2  0
  2  3  1  0
  3  4  1  0
  4  5  1  0
  5  6  1  0
  7  6  1  6
  7  8  1  0
  8  9  2  0
  9 10  1  0
 10 11  2  0
 11 12  1  0
 12 13  1  0
 12 14  2  0
 14 15  1  0
 15 16  1  0
 16 17  1  0
 17 18  2  0
 17 19  1  0
 19 20  1  0
 20 21  1  0
 21 22  1  6
 21 23  1  0
 23 24  1  0
 23  4  1  0
 16  7  1  0
 21  7  1  0
 14  8  1  0
 24  9  1  0
  1 25  1  0
  1 26  1  0
  2 27  1  0
  3 28  1  0
  3 29  1  0
  4 30  1  0
  5 31  1  0
  5 32  1  0
  6 33  1  0
  6 34  1  0
 10 35  1  0
 11 36  1  0
 13 37  1  0
 16 38  1  6
 19 39  1  0
 19 40  1  0
 20 41  1  0
 20 42  1  0
 22 43  1  0
 23 44  1  6
 24 45  1  0
 24 46  1  0
M  CHG  1   4   1
M  END
>  <meeko>  (1) 
{"is_sidechain": false}

>  <vina_kcal_mol>  (1) 
-8.446

$$$$
