oxicodona
     RDKit          3D

 45 49  0  0  0  0  0  0  0  0999 V2000
  137.2330  123.8360  137.1170 C   0  0  0  0  0  0  0  0  0  0  0  0
  136.8710  123.9870  135.7510 O   0  0  0  0  0  0  0  0  0  0  0  0
  137.8480  123.8000  134.8220 C   0  0  0  0  0  0  0  0  0  0  0  0
  138.4120  122.5740  134.4390 C   0  0  0  0  0  0  0  0  0  0  0  0
  139.4440  122.5030  133.4730 C   0  0  0  0  0  0  0  0  0  0  0  0
  139.9090  123.6580  132.8470 C   0  0  0  0  0  0  0  0  0  0  0  0
  139.3050  124.8430  133.2150 C   0  0  0  0  0  0  0  0  0  0  0  0
  138.3390  124.9320  134.2000 C   0  0  0  0  0  0  0  0  0  0  0  0
  137.9960  126.2410  134.4510 O   0  0  0  0  0  0  0  0  0  0  0  0
  139.0900  127.0060  133.8680 C   0  0  1  0  0  0  0  0  0  0  0  0
  140.1740  127.2630  134.9310 C   0  0  0  0  0  0  0  0  0  0  0  0
  139.9210  127.3710  136.1300 O   0  0  0  0  0  0  0  0  0  0  0  0
  141.5860  127.4730  134.4370 C   0  0  0  0  0  0  0  0  0  0  0  0
  141.9980  126.3460  133.4950 C   0  0  0  0  0  0  0  0  0  0  0  0
  141.0740  126.3000  132.2720 C   0  0  1  0  0  0  0  0  0  0  0  0
  141.2620  127.5060  131.4910 O   0  0  0  0  0  0  0  0  0  0  0  0
  141.3560  125.1050  131.2990 C   0  0  1  0  0  0  0  0  0  0  0  0
  141.0620  123.6930  131.8830 C   0  0  0  0  0  0  0  0  0  0  0  0
  140.5130  125.4190  130.0360 N   0  0  0  0  0  0  0  0  0  0  0  0
  140.8910  124.6270  128.8210 C   0  0  0  0  0  0  0  0  0  0  0  0
  139.0210  125.4630  130.2640 C   0  0  0  0  0  0  0  0  0  0  0  0
  138.6810  126.4060  131.4170 C   0  0  0  0  0  0  0  0  0  0  0  0
  139.5860  126.1950  132.6580 C   0  0  1  0  0  0  0  0  0  0  0  0
  136.4064  124.1808  137.7556 H   0  0  0  0  0  0  0  0  0  0  0  0
  137.4406  122.7762  137.3263 H   0  0  0  0  0  0  0  0  0  0  0  0
  138.1322  124.4341  137.3263 H   0  0  0  0  0  0  0  0  0  0  0  0
  138.0435  121.6459  134.9003 H   0  0  0  0  0  0  0  0  0  0  0  0
  139.8827  121.5280  133.2142 H   0  0  0  0  0  0  0  0  0  0  0  0
  138.7796  128.0040  133.5250 H   0  0  0  0  0  0  0  0  0  0  0  0
  141.6425  128.4316  133.9004 H   0  0  0  0  0  0  0  0  0  0  0  0
  142.2668  127.4800  135.3010 H   0  0  0  0  0  0  0  0  0  0  0  0
  143.0323  126.5143  133.1605 H   0  0  0  0  0  0  0  0  0  0  0  0
  141.9229  125.3892  134.0325 H   0  0  0  0  0  0  0  0  0  0  0  0
  141.1280  127.3160  130.5400 H   0  0  0  0  0  0  0  0  0  0  0  0
  142.4327  125.0368  131.0844 H   0  0  0  0  0  0  0  0  0  0  0  0
  140.8355  123.0136  131.0480 H   0  0  0  0  0  0  0  0  0  0  0  0
  141.9568  123.3888  132.4458 H   0  0  0  0  0  0  0  0  0  0  0  0
  140.7710  126.4030  129.8330 H   0  0  0  0  0  0  0  0  0  0  0  0
  141.3456  123.6745  129.1310 H   0  0  0  0  0  0  0  0  0  0  0  0
  139.9919  124.4257  128.2201 H   0  0  0  0  0  0  0  0  0  0  0  0
  141.6130  125.1995  128.2201 H   0  0  0  0  0  0  0  0  0  0  0  0
  138.5256  125.8182  129.3483 H   0  0  0  0  0  0  0  0  0  0  0  0
  138.6710  124.4516  130.5180 H   0  0  0  0  0  0  0  0  0  0  0  0
  138.7995  127.4427  131.0688 H   0  0  0  0  0  0  0  0  0  0  0  0
  137.6465  126.1919  131.7235 H   0  0  0  0  0  0  0  0  0  0  0  0
  1  2  1  0
  2  3  1  0
  3  4  1  0
  4  5  2  0
  5  6  1  0
  6  7  2  0
  7  8  1  0
  8  9  1  0
  9 10  1  0
 10 11  1  0
 11 12  2  0
 11 13  1  0
 13 14  1  0
 14 15  1  0
 15 16  1  6
 15 17  1  0
 17 18  1  0
 17 19  1  0
 19 20  1  0
 19 21  1  0
 21 22  1  0
 23 22  1  6
  8  3  2  0
 23 10  1  0
 18  6  1  0
 23  7  1  0
 23 15  1  0
  1 24  1  0
  1 25  1  0
  1 26  1  0
  4 27  1  0
  5 28  1  0
 10 29  1  6
 13 30  1  0
 13 31  1  0
 14 32  1  0
 14 33  1  0
 16 34  1  0
 17 35  1  6
 18 36  1  0
 18 37  1  0
 19 38  1  0
 20 39  1  0
 20 40  1  0
 20 41  1  0
 21 42  1  0
 21 43  1  0
 22 44  1  0
 22 45  1  0
M  CHG  1  19   1
M  END
>  <meeko>  (1) 
{"is_sidechain": false}

>  <vina_kcal_mol>  (1) 
-8.358

$$$$
