petidina
     RDKit          3D

 40 41  0  0  0  0  0  0  0  0999 V2000
  141.8500  127.9830  132.3610 C   0  0  0  0  0  0  0  0  0  0  0  0
  141.7580  127.4900  133.7930 C   0  0  0  0  0  0  0  0  0  0  0  0
  140.4180  127.0570  134.0770 O   0  0  0  0  0  0  0  0  0  0  0  0
  140.2500  125.7580  134.4210 C   0  0  0  0  0  0  0  0  0  0  0  0
  140.6400  125.2490  135.4710 O   0  0  0  0  0  0  0  0  0  0  0  0
  139.3750  124.9810  133.4120 C   0  0  0  0  0  0  0  0  0  0  0  0
  140.1090  124.7930  132.0720 C   0  0  0  0  0  0  0  0  0  0  0  0
  141.3270  124.1020  131.9590 C   0  0  0  0  0  0  0  0  0  0  0  0
  141.9620  123.9610  130.7210 C   0  0  0  0  0  0  0  0  0  0  0  0
  141.3940  124.5030  129.5730 C   0  0  0  0  0  0  0  0  0  0  0  0
  140.1870  125.1880  129.6580 C   0  0  0  0  0  0  0  0  0  0  0  0
  139.5510  125.3320  130.8930 C   0  0  0  0  0  0  0  0  0  0  0  0
  139.0730  123.5640  133.9900 C   0  0  0  0  0  0  0  0  0  0  0  0
  137.8360  123.4870  134.8830 C   0  0  0  0  0  0  0  0  0  0  0  0
  137.6310  124.7840  135.5970 N   0  0  0  0  0  0  0  0  0  0  0  0
  136.6400  124.6830  136.7200 C   0  0  0  0  0  0  0  0  0  0  0  0
  137.3150  125.9200  134.6600 C   0  0  0  0  0  0  0  0  0  0  0  0
  138.0460  125.7670  133.3210 C   0  0  0  0  0  0  0  0  0  0  0  0
  142.0518  129.0643  132.3577 H   0  0  0  0  0  0  0  0  0  0  0  0
  142.6654  127.4563  131.8435 H   0  0  0  0  0  0  0  0  0  0  0  0
  140.8996  127.7858  131.8435 H   0  0  0  0  0  0  0  0  0  0  0  0
  142.4509  126.6473  133.9337 H   0  0  0  0  0  0  0  0  0  0  0  0
  142.0255  128.3100  134.4757 H   0  0  0  0  0  0  0  0  0  0  0  0
  141.7879  123.6655  132.8574 H   0  0  0  0  0  0  0  0  0  0  0  0
  142.9164  123.4182  130.6548 H   0  0  0  0  0  0  0  0  0  0  0  0
  141.8976  124.3902  128.6016 H   0  0  0  0  0  0  0  0  0  0  0  0
  139.7330  125.6166  128.7524 H   0  0  0  0  0  0  0  0  0  0  0  0
  138.5966  125.8761  130.9479 H   0  0  0  0  0  0  0  0  0  0  0  0
  138.9292  122.8736  133.1458 H   0  0  0  0  0  0  0  0  0  0  0  0
  139.9309  123.2994  134.6257 H   0  0  0  0  0  0  0  0  0  0  0  0
  136.9536  123.2705  134.2629 H   0  0  0  0  0  0  0  0  0  0  0  0
  137.9795  122.6882  135.6255 H   0  0  0  0  0  0  0  0  0  0  0  0
  138.5370  125.0160  136.0580 H   0  0  0  0  0  0  0  0  0  0  0  0
  137.1698  124.7370  137.6825 H   0  0  0  0  0  0  0  0  0  0  0  0
  135.9209  125.5125  136.6502 H   0  0  0  0  0  0  0  0  0  0  0  0
  136.1031  123.7255  136.6502 H   0  0  0  0  0  0  0  0  0  0  0  0
  136.2309  125.9389  134.4748 H   0  0  0  0  0  0  0  0  0  0  0  0
  137.6497  126.8567  135.1297 H   0  0  0  0  0  0  0  0  0  0  0  0
  137.3800  125.2394  132.6224 H   0  0  0  0  0  0  0  0  0  0  0  0
  138.3008  126.7818  132.9815 H   0  0  0  0  0  0  0  0  0  0  0  0
  1  2  1  0
  2  3  1  0
  3  4  1  0
  4  5  2  0
  4  6  1  0
  6  7  1  0
  7  8  2  0
  8  9  1  0
  9 10  2  0
 10 11  1  0
 11 12  2  0
  6 13  1  0
 13 14  1  0
 14 15  1  0
 15 16  1  0
 15 17  1  0
 17 18  1  0
 18  6  1  0
 12  7  1  0
  1 19  1  0
  1 20  1  0
  1 21  1  0
  2 22  1  0
  2 23  1  0
  8 24  1  0
  9 25  1  0
 10 26  1  0
 11 27  1  0
 12 28  1  0
 13 29  1  0
 13 30  1  0
 14 31  1  0
 14 32  1  0
 15 33  1  0
 16 34  1  0
 16 35  1  0
 16 36  1  0
 17 37  1  0
 17 38  1  0
 18 39  1  0
 18 40  1  0
M  CHG  1  15   1
M  END
>  <meeko>  (1) 
{"is_sidechain": false}

>  <vina_kcal_mol>  (1) 
-6.716

$$$$
