ácido acetilsalicílico
     RDKit          3D

 20 20  0  0  0  0  0  0  0  0999 V2000
   29.5860  -22.4500  -15.3730 C   0  0  0  0  0  0  0  0  0  0  0  0
   30.7750  -22.8340  -14.5410 C   0  0  0  0  0  0  0  0  0  0  0  0
   31.7060  -22.0720  -14.2960 O   0  0  0  0  0  0  0  0  0  0  0  0
   30.6980  -24.1880  -14.2450 O   0  0  0  0  0  0  0  0  0  0  0  0
   31.1570  -24.4810  -12.9600 C   0  0  0  0  0  0  0  0  0  0  0  0
   30.4370  -23.9510  -11.8810 C   0  0  0  0  0  0  0  0  0  0  0  0
   30.8900  -24.1530  -10.5790 C   0  0  0  0  0  0  0  0  0  0  0  0
   32.0650  -24.8660  -10.3620 C   0  0  0  0  0  0  0  0  0  0  0  0
   32.7890  -25.3750  -11.4460 C   0  0  0  0  0  0  0  0  0  0  0  0
   32.3530  -25.1920  -12.7730 C   0  0  0  0  0  0  0  0  0  0  0  0
   33.1770  -25.7550  -13.9150 C   0  0  0  0  0  0  0  0  0  0  0  0
   33.7700  -24.9400  -14.6910 O   0  0  0  0  0  0  0  0  0  0  0  0
   33.2100  -27.0240  -14.0240 O   0  0  0  0  0  0  0  0  0  0  0  0
   28.7486  -22.1796  -14.7130 H   0  0  0  0  0  0  0  0  0  0  0  0
   29.8451  -21.5899  -16.0078 H   0  0  0  0  0  0  0  0  0  0  0  0
   29.2930  -23.2992  -16.0078 H   0  0  0  0  0  0  0  0  0  0  0  0
   29.5163  -23.3768  -12.0615 H   0  0  0  0  0  0  0  0  0  0  0  0
   30.3218  -23.7510   -9.7272 H   0  0  0  0  0  0  0  0  0  0  0  0
   32.4257  -25.0300   -9.3358 H   0  0  0  0  0  0  0  0  0  0  0  0
   33.7195  -25.9305  -11.2576 H   0  0  0  0  0  0  0  0  0  0  0  0
  1  2  1  0
  2  3  2  0
  2  4  1  0
  4  5  1  0
  5  6  2  0
  6  7  1  0
  7  8  2  0
  8  9  1  0
  9 10  2  0
 10 11  1  0
 11 12  2  0
 11 13  1  0
 10  5  1  0
  1 14  1  0
  1 15  1  0
  1 16  1  0
  6 17  1  0
  7 18  1  0
  8 19  1  0
  9 20  1  0
M  CHG  1  13  -1
M  END
>  <meeko>  (1) 
{"is_sidechain": false}

>  <vina_kcal_mol>  (1) 
-6.669

$$$$
