celecoxib
     RDKit          3D

 40 42  0  0  0  0  0  0  0  0999 V2000
   31.6890  -24.7750  -11.3510 C   0  0  0  0  0  0  0  0  0  0  0  0
   31.8730  -24.1510  -12.7030 C   0  0  0  0  0  0  0  0  0  0  0  0
   32.6270  -24.7990  -13.6870 C   0  0  0  0  0  0  0  0  0  0  0  0
   32.8240  -24.2030  -14.9370 C   0  0  0  0  0  0  0  0  0  0  0  0
   32.2680  -22.9500  -15.2170 C   0  0  0  0  0  0  0  0  0  0  0  0
   32.4870  -22.3240  -16.5180 C   0  0  0  0  0  0  0  0  0  0  0  0
   33.7000  -22.1630  -17.1610 C   0  0  0  0  0  0  0  0  0  0  0  0
   33.4490  -21.3570  -18.2910 C   0  0  0  0  0  0  0  0  0  0  0  0
   34.4630  -20.8650  -19.2870 C   0  0  0  0  0  0  0  0  0  0  0  0
   34.5830  -19.5110  -19.2750 F   0  0  0  0  0  0  0  0  0  0  0  0
   34.1660  -21.2270  -20.5620 F   0  0  0  0  0  0  0  0  0  0  0  0
   35.7050  -21.3610  -19.0280 F   0  0  0  0  0  0  0  0  0  0  0  0
   32.1470  -21.0350  -18.3580 N   0  0  0  0  0  0  0  0  0  0  0  0
   31.5410  -21.6940  -17.3270 N   0  0  0  0  0  0  0  0  0  0  0  0
   30.1100  -21.6600  -17.2460 C   0  0  0  0  0  0  0  0  0  0  0  0
   29.3710  -22.6490  -16.5820 C   0  0  0  0  0  0  0  0  0  0  0  0
   27.9730  -22.5760  -16.5300 C   0  0  0  0  0  0  0  0  0  0  0  0
   27.3080  -21.5230  -17.1600 C   0  0  0  0  0  0  0  0  0  0  0  0
   25.5460  -21.4150  -17.0650 S   0  0  0  0  0  0  0  0  0  0  0  0
   25.0880  -21.8340  -18.6250 N   0  0  0  0  0  0  0  0  0  0  0  0
   25.1620  -20.0330  -16.8930 O   0  0  0  0  0  0  0  0  0  0  0  0
   25.0500  -22.4690  -16.2100 O   0  0  0  0  0  0  0  0  0  0  0  0
   28.0260  -20.5350  -17.8330 C   0  0  0  0  0  0  0  0  0  0  0  0
   29.4210  -20.6100  -17.8830 C   0  0  0  0  0  0  0  0  0  0  0  0
   31.5420  -22.2860  -14.2210 C   0  0  0  0  0  0  0  0  0  0  0  0
   31.3450  -22.8830  -12.9740 C   0  0  0  0  0  0  0  0  0  0  0  0
   31.9083  -24.0311  -10.5709 H   0  0  0  0  0  0  0  0  0  0  0  0
   30.6504  -25.1217  -11.2454 H   0  0  0  0  0  0  0  0  0  0  0  0
   32.3733  -25.6297  -11.2454 H   0  0  0  0  0  0  0  0  0  0  0  0
   33.0682  -25.7844  -13.4763 H   0  0  0  0  0  0  0  0  0  0  0  0
   33.4187  -24.7217  -15.7033 H   0  0  0  0  0  0  0  0  0  0  0  0
   34.6696  -22.5809  -16.8524 H   0  0  0  0  0  0  0  0  0  0  0  0
   29.8925  -23.4882  -16.0985 H   0  0  0  0  0  0  0  0  0  0  0  0
   27.4005  -23.3471  -15.9937 H   0  0  0  0  0  0  0  0  0  0  0  0
   25.6680  -21.3360  -19.3020 H   0  0  0  0  0  0  0  0  0  0  0  0
   24.0870  -21.6780  -18.7480 H   0  0  0  0  0  0  0  0  0  0  0  0
   27.4983  -19.7024  -18.3212 H   0  0  0  0  0  0  0  0  0  0  0  0
   29.9874  -19.8394  -18.4265 H   0  0  0  0  0  0  0  0  0  0  0  0
   31.1244  -21.2884  -14.4218 H   0  0  0  0  0  0  0  0  0  0  0  0
   30.7710  -22.3533  -12.1994 H   0  0  0  0  0  0  0  0  0  0  0  0
  1  2  1  0
  2  3  1  0
  3  4  2  0
  4  5  1  0
  5  6  1  0
  6  7  2  0
  7  8  1  0
  8  9  1  0
  9 10  1  0
  9 11  1  0
  9 12  1  0
  8 13  2  0
 13 14  1  0
 14 15  1  0
 15 16  1  0
 16 17  2  0
 17 18  1  0
 18 19  1  0
 19 20  1  0
 19 21  2  0
 19 22  2  0
 18 23  2  0
 23 24  1  0
  5 25  2  0
 25 26  1  0
 26  2  2  0
 14  6  1  0
 24 15  2  0
  1 27  1  0
  1 28  1  0
  1 29  1  0
  3 30  1  0
  4 31  1  0
  7 32  1  0
 16 33  1  0
 17 34  1  0
 20 35  1  0
 20 36  1  0
 23 37  1  0
 24 38  1  0
 25 39  1  0
 26 40  1  0
M  END
>  <meeko>  (1) 
{"is_sidechain": false}

>  <vina_kcal_mol>  (1) 
-12.07

$$$$
