diclofenaco
     RDKit          3D

 29 30  0  0  0  0  0  0  0  0999 V2000
   31.9580  -18.6300  -17.1490 O   0  0  0  0  0  0  0  0  0  0  0  0
   32.6510  -19.4780  -17.7870 C   0  0  0  0  0  0  0  0  0  0  0  0
   33.4050  -19.2960  -18.7870 O   0  0  0  0  0  0  0  0  0  0  0  0
   32.6470  -20.8960  -17.2180 C   0  0  0  0  0  0  0  0  0  0  0  0
   31.2660  -21.4170  -16.8850 C   0  0  0  0  0  0  0  0  0  0  0  0
   30.2490  -21.2300  -17.8400 C   0  0  0  0  0  0  0  0  0  0  0  0
   28.9340  -21.6240  -17.5880 C   0  0  0  0  0  0  0  0  0  0  0  0
   28.6090  -22.2100  -16.3700 C   0  0  0  0  0  0  0  0  0  0  0  0
   29.6070  -22.4170  -15.4190 C   0  0  0  0  0  0  0  0  0  0  0  0
   30.9390  -22.0490  -15.6700 C   0  0  0  0  0  0  0  0  0  0  0  0
   31.8950  -22.3170  -14.6470 N   0  0  0  0  0  0  0  0  0  0  0  0
   32.1570  -23.6310  -14.1190 C   0  0  0  0  0  0  0  0  0  0  0  0
   33.2050  -24.3920  -14.6930 C   0  0  0  0  0  0  0  0  0  0  0  0
   34.1320  -23.7600  -16.0210 Cl  0  0  0  0  0  0  0  0  0  0  0  0
   33.5420  -25.6650  -14.2230 C   0  0  0  0  0  0  0  0  0  0  0  0
   32.8550  -26.2080  -13.1450 C   0  0  0  0  0  0  0  0  0  0  0  0
   31.8550  -25.4640  -12.5250 C   0  0  0  0  0  0  0  0  0  0  0  0
   31.5160  -24.1820  -12.9900 C   0  0  0  0  0  0  0  0  0  0  0  0
   30.3480  -23.3300  -12.0340 Cl  0  0  0  0  0  0  0  0  0  0  0  0
   33.1017  -21.5687  -17.9601 H   0  0  0  0  0  0  0  0  0  0  0  0
   33.2131  -20.8643  -16.2754 H   0  0  0  0  0  0  0  0  0  0  0  0
   30.4958  -20.7636  -18.8052 H   0  0  0  0  0  0  0  0  0  0  0  0
   28.1567  -21.4712  -18.3512 H   0  0  0  0  0  0  0  0  0  0  0  0
   27.5716  -22.5082  -16.1581 H   0  0  0  0  0  0  0  0  0  0  0  0
   29.3465  -22.8770  -14.4543 H   0  0  0  0  0  0  0  0  0  0  0  0
   32.7930  -21.9990  -15.0220 H   0  0  0  0  0  0  0  0  0  0  0  0
   34.3493  -26.2351  -14.7059 H   0  0  0  0  0  0  0  0  0  0  0  0
   33.0991  -27.2180  -12.7840 H   0  0  0  0  0  0  0  0  0  0  0  0
   31.3230  -25.8854  -11.6593 H   0  0  0  0  0  0  0  0  0  0  0  0
  1  2  2  0
  2  3  1  0
  2  4  1  0
  4  5  1  0
  5  6  2  0
  6  7  1  0
  7  8  2  0
  8  9  1  0
  9 10  2  0
 10 11  1  0
 11 12  1  0
 12 13  2  0
 13 14  1  0
 13 15  1  0
 15 16  2  0
 16 17  1  0
 17 18  2  0
 18 19  1  0
 10  5  1  0
 18 12  1  0
  4 20  1  0
  4 21  1  0
  6 22  1  0
  7 23  1  0
  8 24  1  0
  9 25  1  0
 11 26  1  0
 15 27  1  0
 16 28  1  0
 17 29  1  0
M  CHG  1   3  -1
M  END
>  <meeko>  (1) 
{"is_sidechain": false}

>  <vina_kcal_mol>  (1) 
-8.358

$$$$
