etoricoxib
     RDKit          3D

 39 41  0  0  0  0  0  0  0  0999 V2000
   30.4330  -24.2790  -11.2940 C   0  0  0  0  0  0  0  0  0  0  0  0
   30.9600  -23.8150  -12.6190 C   0  0  0  0  0  0  0  0  0  0  0  0
   31.3450  -24.7420  -13.5800 C   0  0  0  0  0  0  0  0  0  0  0  0
   31.8320  -24.2810  -14.8030 C   0  0  0  0  0  0  0  0  0  0  0  0
   31.9270  -22.9080  -15.0590 C   0  0  0  0  0  0  0  0  0  0  0  0
   32.4300  -22.4000  -16.3460 C   0  0  0  0  0  0  0  0  0  0  0  0
   33.7830  -22.5040  -16.4780 N   0  0  0  0  0  0  0  0  0  0  0  0
   34.3480  -22.0420  -17.6190 C   0  0  0  0  0  0  0  0  0  0  0  0
   33.6290  -21.4810  -18.6550 C   0  0  0  0  0  0  0  0  0  0  0  0
   34.4140  -20.9170  -20.0720 Cl  0  0  0  0  0  0  0  0  0  0  0  0
   32.2490  -21.3910  -18.5270 C   0  0  0  0  0  0  0  0  0  0  0  0
   31.6110  -21.8580  -17.3620 C   0  0  0  0  0  0  0  0  0  0  0  0
   30.1430  -21.7900  -17.2770 C   0  0  0  0  0  0  0  0  0  0  0  0
   29.4110  -22.8280  -16.6710 C   0  0  0  0  0  0  0  0  0  0  0  0
   28.0160  -22.7830  -16.6150 C   0  0  0  0  0  0  0  0  0  0  0  0
   27.3420  -21.6940  -17.1690 C   0  0  0  0  0  0  0  0  0  0  0  0
   25.5670  -21.6340  -17.1110 S   0  0  0  0  0  0  0  0  0  0  0  0
   25.2350  -19.9710  -16.5900 C   0  0  0  0  0  0  0  0  0  0  0  0
   25.0800  -21.7880  -18.4690 O   0  0  0  0  0  0  0  0  0  0  0  0
   25.1350  -22.5350  -16.0610 O   0  0  0  0  0  0  0  0  0  0  0  0
   28.0470  -20.6360  -17.7450 C   0  0  0  0  0  0  0  0  0  0  0  0
   29.4410  -20.6890  -17.7980 C   0  0  0  0  0  0  0  0  0  0  0  0
   31.5380  -22.0670  -14.0170 C   0  0  0  0  0  0  0  0  0  0  0  0
   31.0480  -22.4810  -12.8210 N   0  0  0  0  0  0  0  0  0  0  0  0
   30.9919  -23.7869  -10.4844 H   0  0  0  0  0  0  0  0  0  0  0  0
   29.3667  -24.0211  -11.2128 H   0  0  0  0  0  0  0  0  0  0  0  0
   30.5538  -25.3693  -11.2128 H   0  0  0  0  0  0  0  0  0  0  0  0
   31.2670  -25.8208  -13.3796 H   0  0  0  0  0  0  0  0  0  0  0  0
   32.1440  -25.0022  -15.5727 H   0  0  0  0  0  0  0  0  0  0  0  0
   35.4401  -22.1181  -17.7259 H   0  0  0  0  0  0  0  0  0  0  0  0
   31.6514  -20.9527  -19.3399 H   0  0  0  0  0  0  0  0  0  0  0  0
   29.9443  -23.6860  -16.2357 H   0  0  0  0  0  0  0  0  0  0  0  0
   27.4535  -23.5992  -16.1382 H   0  0  0  0  0  0  0  0  0  0  0  0
   25.2260  -19.9260  -15.4910 H   0  0  0  0  0  0  0  0  0  0  0  0
   26.0173  -19.3021  -16.9780 H   0  0  0  0  0  0  0  0  0  0  0  0
   24.2558  -19.6538  -16.9780 H   0  0  0  0  0  0  0  0  0  0  0  0
   27.5089  -19.7680  -18.1536 H   0  0  0  0  0  0  0  0  0  0  0  0
   29.9982  -19.8573  -18.2540 H   0  0  0  0  0  0  0  0  0  0  0  0
   31.6360  -20.9831  -14.1769 H   0  0  0  0  0  0  0  0  0  0  0  0
  1  2  1  0
  2  3  2  0
  3  4  1  0
  4  5  2  0
  5  6  1  0
  6  7  1  0
  7  8  2  0
  8  9  1  0
  9 10  1  0
  9 11  2  0
 11 12  1  0
 12 13  1  0
 13 14  1  0
 14 15  2  0
 15 16  1  0
 16 17  1  0
 17 18  1  0
 17 19  2  0
 17 20  2  0
 16 21  2  0
 21 22  1  0
  5 23  1  0
 23 24  2  0
 24  2  1  0
 12  6  2  0
 22 13  2  0
  1 25  1  0
  1 26  1  0
  1 27  1  0
  3 28  1  0
  4 29  1  0
  8 30  1  0
 11 31  1  0
 14 32  1  0
 15 33  1  0
 18 34  1  0
 18 35  1  0
 18 36  1  0
 21 37  1  0
 22 38  1  0
 23 39  1  0
M  END
>  <meeko>  (1) 
{"is_sidechain": false}

>  <vina_kcal_mol>  (1) 
-10.841

$$$$
