ibuprofeno
     RDKit          3D

 32 32  0  0  0  0  0  0  0  0999 V2000
   30.5010  -23.7820  -11.6580 C   0  0  0  0  0  0  0  0  0  0  0  0
   31.6540  -24.1690  -12.5860 C   0  0  0  0  0  0  0  0  0  0  0  0
   32.5230  -25.2350  -11.9130 C   0  0  0  0  0  0  0  0  0  0  0  0
   31.0970  -24.6490  -13.9400 C   0  0  0  0  0  0  0  0  0  0  0  0
   31.4030  -23.7220  -15.0890 C   0  0  0  0  0  0  0  0  0  0  0  0
   30.3680  -23.1580  -15.8450 C   0  0  0  0  0  0  0  0  0  0  0  0
   30.6510  -22.3010  -16.9110 C   0  0  0  0  0  0  0  0  0  0  0  0
   31.9750  -21.9880  -17.2490 C   0  0  0  0  0  0  0  0  0  0  0  0
   32.2980  -21.0350  -18.3890 C   0  0  0  0  0  0  0  0  0  0  0  0
   33.1460  -21.7250  -19.4570 C   0  0  0  0  0  0  0  0  0  0  0  0
   32.9570  -19.7360  -17.8780 C   0  0  0  0  0  0  0  0  0  0  0  0
   32.1800  -18.8690  -17.3760 O   0  0  0  0  0  0  0  0  0  0  0  0
   34.2190  -19.6950  -17.9880 O   0  0  0  0  0  0  0  0  0  0  0  0
   33.0090  -22.5560  -16.4930 C   0  0  0  0  0  0  0  0  0  0  0  0
   32.7270  -23.4140  -15.4260 C   0  0  0  0  0  0  0  0  0  0  0  0
   30.8211  -23.8894  -10.6111 H   0  0  0  0  0  0  0  0  0  0  0  0
   30.2122  -22.7377  -11.8478 H   0  0  0  0  0  0  0  0  0  0  0  0
   29.6407  -24.4406  -11.8478 H   0  0  0  0  0  0  0  0  0  0  0  0
   32.2898  -23.2927  -12.7803 H   0  0  0  0  0  0  0  0  0  0  0  0
   32.4431  -25.1370  -10.8203 H   0  0  0  0  0  0  0  0  0  0  0  0
   32.1790  -26.2344  -12.2176 H   0  0  0  0  0  0  0  0  0  0  0  0
   33.5713  -25.0994  -12.2176 H   0  0  0  0  0  0  0  0  0  0  0  0
   31.5323  -25.6340  -14.1641 H   0  0  0  0  0  0  0  0  0  0  0  0
   30.0021  -24.6842  -13.8407 H   0  0  0  0  0  0  0  0  0  0  0  0
   29.3222  -23.3921  -15.5970 H   0  0  0  0  0  0  0  0  0  0  0  0
   29.8247  -21.8663  -17.4925 H   0  0  0  0  0  0  0  0  0  0  0  0
   31.3481  -20.7428  -18.8606 H   0  0  0  0  0  0  0  0  0  0  0  0
   33.9116  -22.3479  -18.9714 H   0  0  0  0  0  0  0  0  0  0  0  0
   32.5015  -22.3585  -20.0842 H   0  0  0  0  0  0  0  0  0  0  0  0
   33.6352  -20.9652  -20.0842 H   0  0  0  0  0  0  0  0  0  0  0  0
   34.0550  -22.3240  -16.7421 H   0  0  0  0  0  0  0  0  0  0  0  0
   33.5528  -23.8513  -14.8456 H   0  0  0  0  0  0  0  0  0  0  0  0
  1  2  1  0
  2  3  1  0
  2  4  1  0
  4  5  1  0
  5  6  1  0
  6  7  2  0
  7  8  1  0
  8  9  1  0
  9 10  1  0
  9 11  1  0
 11 12  2  0
 11 13  1  0
  8 14  2  0
 14 15  1  0
 15  5  2  0
  1 16  1  0
  1 17  1  0
  1 18  1  0
  2 19  1  0
  3 20  1  0
  3 21  1  0
  3 22  1  0
  4 23  1  0
  4 24  1  0
  6 25  1  0
  7 26  1  0
  9 27  1  0
 10 28  1  0
 10 29  1  0
 10 30  1  0
 14 31  1  0
 15 32  1  0
M  CHG  1  13  -1
M  END
>  <meeko>  (1) 
{"is_sidechain": false}

>  <vina_kcal_mol>  (1) 
-7.416

$$$$
