indometacina
     RDKit          3D

 40 42  0  0  0  0  0  0  0  0999 V2000
   27.0240  -21.0480  -17.5840 C   0  0  0  0  0  0  0  0  0  0  0  0
   28.3180  -20.6310  -18.0440 O   0  0  0  0  0  0  0  0  0  0  0  0
   29.2780  -21.4180  -17.4640 C   0  0  0  0  0  0  0  0  0  0  0  0
   28.8940  -22.5480  -16.7600 C   0  0  0  0  0  0  0  0  0  0  0  0
   29.8580  -23.3800  -16.1760 C   0  0  0  0  0  0  0  0  0  0  0  0
   31.2220  -23.0250  -16.2750 C   0  0  0  0  0  0  0  0  0  0  0  0
   31.6080  -21.8950  -17.0020 C   0  0  0  0  0  0  0  0  0  0  0  0
   30.6200  -21.0700  -17.5790 C   0  0  0  0  0  0  0  0  0  0  0  0
   33.0300  -21.8530  -17.0350 C   0  0  0  0  0  0  0  0  0  0  0  0
   33.8500  -20.7950  -17.7170 C   0  0  0  0  0  0  0  0  0  0  0  0
   34.4340  -21.2660  -19.0550 C   0  0  0  0  0  0  0  0  0  0  0  0
   33.5830  -21.5230  -19.9590 O   0  0  0  0  0  0  0  0  0  0  0  0
   35.6920  -21.4030  -19.0860 O   0  0  0  0  0  0  0  0  0  0  0  0
   33.4870  -22.9630  -16.3390 C   0  0  0  0  0  0  0  0  0  0  0  0
   34.9000  -23.4040  -16.1300 C   0  0  0  0  0  0  0  0  0  0  0  0
   32.3900  -23.6280  -15.7840 N   0  0  0  0  0  0  0  0  0  0  0  0
   32.4560  -24.7180  -14.8710 C   0  0  0  0  0  0  0  0  0  0  0  0
   32.7810  -25.8290  -15.2950 O   0  0  0  0  0  0  0  0  0  0  0  0
   32.2020  -24.6380  -13.4130 C   0  0  0  0  0  0  0  0  0  0  0  0
   31.0460  -23.9780  -12.9670 C   0  0  0  0  0  0  0  0  0  0  0  0
   30.7630  -23.9130  -11.6010 C   0  0  0  0  0  0  0  0  0  0  0  0
   31.6250  -24.5190  -10.6870 C   0  0  0  0  0  0  0  0  0  0  0  0
   31.2780  -24.4340   -9.0020 Cl  0  0  0  0  0  0  0  0  0  0  0  0
   32.7610  -25.2020  -11.1260 C   0  0  0  0  0  0  0  0  0  0  0  0
   33.0460  -25.2750  -12.4930 C   0  0  0  0  0  0  0  0  0  0  0  0
   27.0098  -21.0526  -16.4841 H   0  0  0  0  0  0  0  0  0  0  0  0
   26.2597  -20.3507  -17.9577 H   0  0  0  0  0  0  0  0  0  0  0  0
   26.8107  -22.0604  -17.9577 H   0  0  0  0  0  0  0  0  0  0  0  0
   27.8264  -22.7931  -16.6591 H   0  0  0  0  0  0  0  0  0  0  0  0
   29.5572  -24.2968  -15.6478 H   0  0  0  0  0  0  0  0  0  0  0  0
   30.9094  -20.1555  -18.1175 H   0  0  0  0  0  0  0  0  0  0  0  0
   33.2105  -19.9192  -17.9015 H   0  0  0  0  0  0  0  0  0  0  0  0
   34.6939  -20.5518  -17.0546 H   0  0  0  0  0  0  0  0  0  0  0  0
   35.1082  -23.4690  -15.0518 H   0  0  0  0  0  0  0  0  0  0  0  0
   35.0482  -24.3911  -16.5922 H   0  0  0  0  0  0  0  0  0  0  0  0
   35.5834  -22.6764  -16.5922 H   0  0  0  0  0  0  0  0  0  0  0  0
   30.3635  -23.5123  -13.6931 H   0  0  0  0  0  0  0  0  0  0  0  0
   29.8644  -23.3863  -11.2474 H   0  0  0  0  0  0  0  0  0  0  0  0
   33.4309  -25.6820  -10.3974 H   0  0  0  0  0  0  0  0  0  0  0  0
   33.9284  -25.8297  -12.8447 H   0  0  0  0  0  0  0  0  0  0  0  0
  1  2  1  0
  2  3  1  0
  3  4  2  0
  4  5  1  0
  5  6  2  0
  6  7  1  0
  7  8  2  0
  7  9  1  0
  9 10  1  0
 10 11  1  0
 11 12  2  0
 11 13  1  0
  9 14  2  0
 14 15  1  0
 14 16  1  0
 16 17  1  0
 17 18  2  0
 17 19  1  0
 19 20  1  0
 20 21  2  0
 21 22  1  0
 22 23  1  0
 22 24  2  0
 24 25  1  0
  8  3  1  0
 25 19  2  0
 16  6  1  0
  1 26  1  0
  1 27  1  0
  1 28  1  0
  4 29  1  0
  5 30  1  0
  8 31  1  0
 10 32  1  0
 10 33  1  0
 15 34  1  0
 15 35  1  0
 15 36  1  0
 20 37  1  0
 21 38  1  0
 24 39  1  0
 25 40  1  0
M  CHG  1  13  -1
M  END
>  <meeko>  (1) 
{"is_sidechain": false}

>  <vina_kcal_mol>  (1) 
-10.213

$$$$
