naproxeno
     RDKit          3D

 30 31  0  0  0  0  0  0  0  0999 V2000
   31.8760  -24.8400   -9.8890 C   0  0  0  0  0  0  0  0  0  0  0  0
   32.2050  -25.2890  -11.1970 O   0  0  0  0  0  0  0  0  0  0  0  0
   31.9350  -24.4270  -12.2270 C   0  0  0  0  0  0  0  0  0  0  0  0
   30.8430  -23.5670  -12.3090 C   0  0  0  0  0  0  0  0  0  0  0  0
   30.6860  -22.7370  -13.4240 C   0  0  0  0  0  0  0  0  0  0  0  0
   31.6170  -22.7540  -14.4750 C   0  0  0  0  0  0  0  0  0  0  0  0
   31.4690  -21.9230  -15.6010 C   0  0  0  0  0  0  0  0  0  0  0  0
   32.4020  -21.9410  -16.6490 C   0  0  0  0  0  0  0  0  0  0  0  0
   32.1970  -21.0540  -17.8660 C   0  0  2  0  0  0  0  0  0  0  0  0
   32.6620  -21.7530  -19.1430 C   0  0  0  0  0  0  0  0  0  0  0  0
   32.8690  -19.6750  -17.6840 C   0  0  0  0  0  0  0  0  0  0  0  0
   32.0920  -18.7500  -17.3030 O   0  0  0  0  0  0  0  0  0  0  0  0
   34.1030  -19.6100  -17.9600 O   0  0  0  0  0  0  0  0  0  0  0  0
   33.5000  -22.8040  -16.5530 C   0  0  0  0  0  0  0  0  0  0  0  0
   33.6600  -23.6350  -15.4410 C   0  0  0  0  0  0  0  0  0  0  0  0
   32.7250  -23.6230  -14.3950 C   0  0  0  0  0  0  0  0  0  0  0  0
   32.8680  -24.4510  -13.2690 C   0  0  0  0  0  0  0  0  0  0  0  0
   32.3552  -25.4939   -9.1455 H   0  0  0  0  0  0  0  0  0  0  0  0
   32.2336  -23.8085   -9.7547 H   0  0  0  0  0  0  0  0  0  0  0  0
   30.7846  -24.8702   -9.7547 H   0  0  0  0  0  0  0  0  0  0  0  0
   30.1027  -23.5402  -11.4958 H   0  0  0  0  0  0  0  0  0  0  0  0
   29.8201  -22.0608  -13.4783 H   0  0  0  0  0  0  0  0  0  0  0  0
   30.6044  -21.2456  -15.6609 H   0  0  0  0  0  0  0  0  0  0  0  0
   31.1172  -20.8708  -17.9685 H   0  0  0  0  0  0  0  0  0  0  0  0
   33.2535  -22.6422  -18.8797 H   0  0  0  0  0  0  0  0  0  0  0  0
   31.7858  -22.0574  -19.7342 H   0  0  0  0  0  0  0  0  0  0  0  0
   33.2814  -21.0625  -19.7342 H   0  0  0  0  0  0  0  0  0  0  0  0
   34.2451  -22.8283  -17.3619 H   0  0  0  0  0  0  0  0  0  0  0  0
   34.5294  -24.3066  -15.3851 H   0  0  0  0  0  0  0  0  0  0  0  0
   33.7302  -25.1312  -13.2056 H   0  0  0  0  0  0  0  0  0  0  0  0
  1  2  1  0
  2  3  1  0
  3  4  1  0
  4  5  2  0
  5  6  1  0
  6  7  2  0
  7  8  1  0
  8  9  1  0
  9 10  1  0
  9 11  1  0
 11 12  2  0
 11 13  1  0
  8 14  2  0
 14 15  1  0
 15 16  2  0
 16 17  1  0
 17  3  2  0
 16  6  1  0
  1 18  1  0
  1 19  1  0
  1 20  1  0
  4 21  1  0
  5 22  1  0
  7 23  1  0
  9 24  1  6
 10 25  1  0
 10 26  1  0
 10 27  1  0
 14 28  1  0
 15 29  1  0
 17 30  1  0
M  CHG  1  13  -1
M  END
>  <meeko>  (1) 
{"is_sidechain": false}

>  <vina_kcal_mol>  (1) 
-8.304

$$$$
