rofecoxib
     RDKit          3D

 36 38  0  0  0  0  0  0  0  0999 V2000
   25.0070  -22.3420  -16.1360 C   0  0  0  0  0  0  0  0  0  0  0  0
   25.6160  -21.2160  -17.3640 S   0  0  0  0  0  0  0  0  0  0  0  0
   25.1630  -21.6780  -18.6620 O   0  0  0  0  0  0  0  0  0  0  0  0
   25.3410  -19.8640  -16.9180 O   0  0  0  0  0  0  0  0  0  0  0  0
   27.3760  -21.4520  -17.2970 C   0  0  0  0  0  0  0  0  0  0  0  0
   27.8980  -22.5320  -16.5840 C   0  0  0  0  0  0  0  0  0  0  0  0
   29.2830  -22.7050  -16.5170 C   0  0  0  0  0  0  0  0  0  0  0  0
   30.1550  -21.7960  -17.1390 C   0  0  0  0  0  0  0  0  0  0  0  0
   31.6090  -21.9860  -17.0720 C   0  0  0  0  0  0  0  0  0  0  0  0
   32.3380  -22.5890  -16.1220 C   0  0  0  0  0  0  0  0  0  0  0  0
   31.9150  -23.2020  -14.8580 C   0  0  0  0  0  0  0  0  0  0  0  0
   31.4150  -22.4080  -13.8170 C   0  0  0  0  0  0  0  0  0  0  0  0
   31.0140  -22.9860  -12.6090 C   0  0  0  0  0  0  0  0  0  0  0  0
   31.1040  -24.3640  -12.4300 C   0  0  0  0  0  0  0  0  0  0  0  0
   31.5860  -25.1680  -13.4610 C   0  0  0  0  0  0  0  0  0  0  0  0
   31.9840  -24.5910  -14.6690 C   0  0  0  0  0  0  0  0  0  0  0  0
   33.7370  -22.5460  -16.6020 C   0  0  0  0  0  0  0  0  0  0  0  0
   34.7060  -23.0180  -16.0350 O   0  0  0  0  0  0  0  0  0  0  0  0
   33.7900  -21.8970  -17.7970 O   0  0  0  0  0  0  0  0  0  0  0  0
   32.4790  -21.4800  -18.1590 C   0  0  0  0  0  0  0  0  0  0  0  0
   29.6080  -20.7140  -17.8460 C   0  0  0  0  0  0  0  0  0  0  0  0
   28.2230  -20.5350  -17.9200 C   0  0  0  0  0  0  0  0  0  0  0  0
   25.2227  -21.9433  -15.1338 H   0  0  0  0  0  0  0  0  0  0  0  0
   23.9203  -22.4632  -16.2564 H   0  0  0  0  0  0  0  0  0  0  0  0
   25.5003  -23.3178  -16.2564 H   0  0  0  0  0  0  0  0  0  0  0  0
   27.2252  -23.2409  -16.0792 H   0  0  0  0  0  0  0  0  0  0  0  0
   29.6963  -23.5650  -15.9696 H   0  0  0  0  0  0  0  0  0  0  0  0
   31.3373  -21.3191  -13.9518 H   0  0  0  0  0  0  0  0  0  0  0  0
   30.6267  -22.3512  -11.7984 H   0  0  0  0  0  0  0  0  0  0  0  0
   30.7951  -24.8171  -11.4764 H   0  0  0  0  0  0  0  0  0  0  0  0
   31.6530  -26.2573  -13.3234 H   0  0  0  0  0  0  0  0  0  0  0  0
   32.3558  -25.2325  -15.4816 H   0  0  0  0  0  0  0  0  0  0  0  0
   32.4242  -20.3831  -18.2207 H   0  0  0  0  0  0  0  0  0  0  0  0
   32.1781  -21.8635  -19.1451 H   0  0  0  0  0  0  0  0  0  0  0  0
   30.2763  -19.9986  -18.3476 H   0  0  0  0  0  0  0  0  0  0  0  0
   27.8041  -19.6768  -18.4659 H   0  0  0  0  0  0  0  0  0  0  0  0
  1  2  1  0
  2  3  2  0
  2  4  2  0
  2  5  1  0
  5  6  1  0
  6  7  2  0
  7  8  1  0
  8  9  1  0
  9 10  2  0
 10 11  1  0
 11 12  2  0
 12 13  1  0
 13 14  2  0
 14 15  1  0
 15 16  2  0
 10 17  1  0
 17 18  2  0
 17 19  1  0
 19 20  1  0
  8 21  2  0
 21 22  1  0
 22  5  2  0
 20  9  1  0
 16 11  1  0
  1 23  1  0
  1 24  1  0
  1 25  1  0
  6 26  1  0
  7 27  1  0
 12 28  1  0
 13 29  1  0
 14 30  1  0
 15 31  1  0
 16 32  1  0
 20 33  1  0
 20 34  1  0
 21 35  1  0
 22 36  1  0
M  END
>  <meeko>  (1) 
{"is_sidechain": false}

>  <vina_kcal_mol>  (1) 
-10.777

$$$$
