valdecoxib
     RDKit          3D

 36 38  0  0  0  0  0  0  0  0999 V2000
   32.2610  -21.4230  -19.1140 C   0  0  0  0  0  0  0  0  0  0  0  0
   32.3700  -22.0370  -17.7760 C   0  0  0  0  0  0  0  0  0  0  0  0
   33.6280  -22.3330  -17.3610 O   0  0  0  0  0  0  0  0  0  0  0  0
   33.5860  -22.8630  -16.0910 N   0  0  0  0  0  0  0  0  0  0  0  0
   32.2920  -22.9080  -15.7360 C   0  0  0  0  0  0  0  0  0  0  0  0
   31.8950  -23.4320  -14.4290 C   0  0  0  0  0  0  0  0  0  0  0  0
   31.1450  -22.6570  -13.5340 C   0  0  0  0  0  0  0  0  0  0  0  0
   30.7830  -23.1670  -12.2840 C   0  0  0  0  0  0  0  0  0  0  0  0
   31.1610  -24.4580  -11.9200 C   0  0  0  0  0  0  0  0  0  0  0  0
   31.8950  -25.2440  -12.8050 C   0  0  0  0  0  0  0  0  0  0  0  0
   32.2590  -24.7350  -14.0550 C   0  0  0  0  0  0  0  0  0  0  0  0
   31.4740  -22.3860  -16.7880 C   0  0  0  0  0  0  0  0  0  0  0  0
   30.0440  -22.1600  -16.8730 C   0  0  0  0  0  0  0  0  0  0  0  0
   29.5530  -21.0130  -17.5140 C   0  0  0  0  0  0  0  0  0  0  0  0
   28.1780  -20.7780  -17.5840 C   0  0  0  0  0  0  0  0  0  0  0  0
   27.2940  -21.7000  -17.0200 C   0  0  0  0  0  0  0  0  0  0  0  0
   25.5460  -21.4030  -17.0880 S   0  0  0  0  0  0  0  0  0  0  0  0
   25.2020  -21.7870  -18.6910 N   0  0  0  0  0  0  0  0  0  0  0  0
   25.3180  -19.9810  -16.9690 O   0  0  0  0  0  0  0  0  0  0  0  0
   24.8860  -22.3700  -16.2450 O   0  0  0  0  0  0  0  0  0  0  0  0
   27.7700  -22.8410  -16.3690 C   0  0  0  0  0  0  0  0  0  0  0  0
   29.1460  -23.0700  -16.2980 C   0  0  0  0  0  0  0  0  0  0  0  0
   32.0696  -20.3450  -19.0082 H   0  0  0  0  0  0  0  0  0  0  0  0
   33.2004  -21.5763  -19.6654 H   0  0  0  0  0  0  0  0  0  0  0  0
   31.4318  -21.8902  -19.6654 H   0  0  0  0  0  0  0  0  0  0  0  0
   30.8388  -21.6392  -13.8175 H   0  0  0  0  0  0  0  0  0  0  0  0
   30.1989  -22.5485  -11.5866 H   0  0  0  0  0  0  0  0  0  0  0  0
   30.8797  -24.8562  -10.9339 H   0  0  0  0  0  0  0  0  0  0  0  0
   32.1883  -26.2653  -12.5204 H   0  0  0  0  0  0  0  0  0  0  0  0
   32.8358  -25.3611  -14.7517 H   0  0  0  0  0  0  0  0  0  0  0  0
   30.2545  -20.2949  -17.9638 H   0  0  0  0  0  0  0  0  0  0  0  0
   27.7946  -19.8738  -18.0795 H   0  0  0  0  0  0  0  0  0  0  0  0
   24.4120  -21.2690  -19.0720 H   0  0  0  0  0  0  0  0  0  0  0  0
   25.0700  -22.7960  -18.7680 H   0  0  0  0  0  0  0  0  0  0  0  0
   27.0658  -23.5541  -15.9155 H   0  0  0  0  0  0  0  0  0  0  0  0
   29.5265  -23.9678  -15.7890 H   0  0  0  0  0  0  0  0  0  0  0  0
  1  2  1  0
  2  3  1  0
  3  4  1  0
  4  5  2  0
  5  6  1  0
  6  7  2  0
  7  8  1  0
  8  9  2  0
  9 10  1  0
 10 11  2  0
  5 12  1  0
 12 13  1  0
 13 14  1  0
 14 15  2  0
 15 16  1  0
 16 17  1  0
 17 18  1  0
 17 19  2  0
 17 20  2  0
 16 21  2  0
 21 22  1  0
 12  2  2  0
 22 13  2  0
 11  6  1  0
  1 23  1  0
  1 24  1  0
  1 25  1  0
  7 26  1  0
  8 27  1  0
  9 28  1  0
 10 29  1  0
 11 30  1  0
 14 31  1  0
 15 32  1  0
 18 33  1  0
 18 34  1  0
 21 35  1  0
 22 36  1  0
M  END
>  <meeko>  (1) 
{"is_sidechain": false}

>  <vina_kcal_mol>  (1) 
-10.683

$$$$
