adrenalina
     RDKit          3D

 27 27  0  0  0  0  0  0  0  0999 V2000
  -31.5630    7.9790    6.1090 C   0  0  0  0  0  0  0  0  0  0  0  0
  -32.1220    9.2530    6.6330 N   0  0  0  0  0  0  0  0  0  0  0  0
  -31.1640   10.0300    7.4950 C   0  0  0  0  0  0  0  0  0  0  0  0
  -30.7850   11.3980    6.8740 C   0  0  2  0  0  0  0  0  0  0  0  0
  -31.6790   11.6750    5.8030 O   0  0  0  0  0  0  0  0  0  0  0  0
  -29.3570   11.4470    6.3730 C   0  0  0  0  0  0  0  0  0  0  0  0
  -28.8890   12.5580    5.6440 C   0  0  0  0  0  0  0  0  0  0  0  0
  -27.5940   12.5760    5.1290 C   0  0  0  0  0  0  0  0  0  0  0  0
  -26.7580   11.4940    5.3570 C   0  0  0  0  0  0  0  0  0  0  0  0
  -25.4970   11.5170    4.8400 O   0  0  0  0  0  0  0  0  0  0  0  0
  -27.1900   10.4050    6.1080 C   0  0  0  0  0  0  0  0  0  0  0  0
  -26.3040    9.3860    6.3080 O   0  0  0  0  0  0  0  0  0  0  0  0
  -28.4830   10.3710    6.6190 C   0  0  0  0  0  0  0  0  0  0  0  0
  -31.2783    7.3300    6.9503 H   0  0  0  0  0  0  0  0  0  0  0  0
  -32.3210    7.4713    5.4945 H   0  0  0  0  0  0  0  0  0  0  0  0
  -30.6761    8.1930    5.4945 H   0  0  0  0  0  0  0  0  0  0  0  0
  -32.4370    9.8330    5.8450 H   0  0  0  0  0  0  0  0  0  0  0  0
  -32.9680    9.0370    7.1830 H   0  0  0  0  0  0  0  0  0  0  0  0
  -31.6327   10.2047    8.4747 H   0  0  0  0  0  0  0  0  0  0  0  0
  -30.2418    9.4377    7.5885 H   0  0  0  0  0  0  0  0  0  0  0  0
  -30.8660   12.1577    7.6653 H   0  0  0  0  0  0  0  0  0  0  0  0
  -32.5820   11.4220    6.0750 H   0  0  0  0  0  0  0  0  0  0  0  0
  -29.5523   13.4200    5.4796 H   0  0  0  0  0  0  0  0  0  0  0  0
  -27.2390   13.4398    4.5477 H   0  0  0  0  0  0  0  0  0  0  0  0
  -25.4380   10.7350    4.2540 H   0  0  0  0  0  0  0  0  0  0  0  0
  -26.7890    8.5580    6.4730 H   0  0  0  0  0  0  0  0  0  0  0  0
  -28.8209    9.5083    7.2120 H   0  0  0  0  0  0  0  0  0  0  0  0
  1  2  1  0
  2  3  1  0
  3  4  1  0
  4  5  1  0
  4  6  1  0
  6  7  1  0
  7  8  2  0
  8  9  1  0
  9 10  1  0
  9 11  2  0
 11 12  1  0
 11 13  1  0
 13  6  2  0
  1 14  1  0
  1 15  1  0
  1 16  1  0
  2 17  1  0
  2 18  1  0
  3 19  1  0
  3 20  1  0
  4 21  1  1
  5 22  1  0
  7 23  1  0
  8 24  1  0
 10 25  1  0
 12 26  1  0
 13 27  1  0
M  CHG  1   2   1
M  END
>  <meeko>  (1) 
{"is_sidechain": false}

>  <vina_kcal_mol>  (1) 
-6.596

$$$$
