atenolol
     RDKit          3D

 42 42  0  0  0  0  0  0  0  0999 V2000
  -22.4270    1.3460   10.6760 C   0  0  0  0  0  0  0  0  0  0  0  0
  -23.6640    0.8290    9.9550 C   0  0  0  0  0  0  0  0  0  0  0  0
  -24.4880   -0.0810   10.8600 C   0  0  0  0  0  0  0  0  0  0  0  0
  -24.5370    1.9850    9.5500 N   0  0  0  0  0  0  0  0  0  0  0  0
  -25.6650    2.3020   10.4840 C   0  0  0  0  0  0  0  0  0  0  0  0
  -26.1050    3.7830   10.4410 C   0  0  0  0  0  0  0  0  0  0  0  0
  -26.2450    4.2040   11.8030 O   0  0  0  0  0  0  0  0  0  0  0  0
  -25.1380    4.7190    9.6920 C   0  0  0  0  0  0  0  0  0  0  0  0
  -25.5510    4.8120    8.3240 O   0  0  0  0  0  0  0  0  0  0  0  0
  -26.0430    6.0180    7.9080 C   0  0  0  0  0  0  0  0  0  0  0  0
  -25.1280    6.8160    7.2170 C   0  0  0  0  0  0  0  0  0  0  0  0
  -25.5030    8.0720    6.7310 C   0  0  0  0  0  0  0  0  0  0  0  0
  -26.8060    8.5430    6.9210 C   0  0  0  0  0  0  0  0  0  0  0  0
  -27.2190    9.9080    6.4230 C   0  0  0  0  0  0  0  0  0  0  0  0
  -26.4710   10.3330    5.1710 C   0  0  0  0  0  0  0  0  0  0  0  0
  -25.5960   11.3690    5.3250 N   0  0  0  0  0  0  0  0  0  0  0  0
  -26.6200    9.8010    4.0740 O   0  0  0  0  0  0  0  0  0  0  0  0
  -27.7210    7.7330    7.6080 C   0  0  0  0  0  0  0  0  0  0  0  0
  -27.3430    6.4790    8.1010 C   0  0  0  0  0  0  0  0  0  0  0  0
  -22.5823    1.2811   11.7631 H   0  0  0  0  0  0  0  0  0  0  0  0
  -21.5561    0.7366   10.3930 H   0  0  0  0  0  0  0  0  0  0  0  0
  -22.2488    2.3939   10.3930 H   0  0  0  0  0  0  0  0  0  0  0  0
  -23.3239    0.2644    9.0744 H   0  0  0  0  0  0  0  0  0  0  0  0
  -24.2730    0.1564   11.9123 H   0  0  0  0  0  0  0  0  0  0  0  0
  -25.5584    0.0750   10.6602 H   0  0  0  0  0  0  0  0  0  0  0  0
  -24.2269   -1.1307   10.6602 H   0  0  0  0  0  0  0  0  0  0  0  0
  -23.9400    2.8310    9.5380 H   0  0  0  0  0  0  0  0  0  0  0  0
  -24.8730    1.8530    8.5880 H   0  0  0  0  0  0  0  0  0  0  0  0
  -26.5273    1.6748   10.2136 H   0  0  0  0  0  0  0  0  0  0  0  0
  -25.3058    2.1012   11.5041 H   0  0  0  0  0  0  0  0  0  0  0  0
  -27.0448    3.8483    9.8731 H   0  0  0  0  0  0  0  0  0  0  0  0
  -27.0080    4.8070   11.8810 H   0  0  0  0  0  0  0  0  0  0  0  0
  -25.1589    5.7175   10.1530 H   0  0  0  0  0  0  0  0  0  0  0  0
  -24.1145    4.3196    9.7466 H   0  0  0  0  0  0  0  0  0  0  0  0
  -24.1027    6.4526    7.0537 H   0  0  0  0  0  0  0  0  0  0  0  0
  -24.7693    8.6931    6.1963 H   0  0  0  0  0  0  0  0  0  0  0  0
  -28.2957    9.8886    6.1987 H   0  0  0  0  0  0  0  0  0  0  0  0
  -26.9779   10.6340    7.2134 H   0  0  0  0  0  0  0  0  0  0  0  0
  -25.0390   11.6180    4.5150 H   0  0  0  0  0  0  0  0  0  0  0  0
  -25.2880   11.7030    6.2270 H   0  0  0  0  0  0  0  0  0  0  0  0
  -28.7507    8.0881    7.7617 H   0  0  0  0  0  0  0  0  0  0  0  0
  -28.0725    5.8575    8.6409 H   0  0  0  0  0  0  0  0  0  0  0  0
  1  2  1  0
  2  3  1  0
  2  4  1  0
  4  5  1  0
  5  6  1  0
  6  7  1  0
  6  8  1  0
  8  9  1  0
  9 10  1  0
 10 11  1  0
 11 12  2  0
 12 13  1  0
 13 14  1  0
 14 15  1  0
 15 16  1  0
 15 17  2  0
 13 18  2  0
 18 19  1  0
 19 10  2  0
  1 20  1  0
  1 21  1  0
  1 22  1  0
  2 23  1  0
  3 24  1  0
  3 25  1  0
  3 26  1  0
  4 27  1  0
  4 28  1  0
  5 29  1  0
  5 30  1  0
  6 31  1  0
  7 32  1  0
  8 33  1  0
  8 34  1  0
 11 35  1  0
 12 36  1  0
 14 37  1  0
 14 38  1  0
 16 39  1  0
 16 40  1  0
 18 41  1  0
 19 42  1  0
M  CHG  1   4   1
M  END
>  <meeko>  (1) 
{"is_sidechain": false}

>  <vina_kcal_mol>  (1) 
-7.573

$$$$
