carazolol
     RDKit          3D

 45 47  0  0  0  0  0  0  0  0999 V2000
  -34.2410    5.1850    7.9220 C   0  0  0  0  0  0  0  0  0  0  0  0
  -34.5990    6.2410    6.8840 C   0  0  0  0  0  0  0  0  0  0  0  0
  -34.0390    5.8840    5.5140 C   0  0  0  0  0  0  0  0  0  0  0  0
  -34.0270    7.5440    7.3380 N   0  0  0  0  0  0  0  0  0  0  0  0
  -32.6520    7.8970    6.8270 C   0  0  0  0  0  0  0  0  0  0  0  0
  -32.1890    9.1490    7.5920 C   0  0  0  0  0  0  0  0  0  0  0  0
  -33.3650    9.9100    7.9170 O   0  0  0  0  0  0  0  0  0  0  0  0
  -31.1870    9.9600    6.7700 C   0  0  0  0  0  0  0  0  0  0  0  0
  -29.9360    9.9500    7.4590 O   0  0  0  0  0  0  0  0  0  0  0  0
  -29.0050   10.6500    6.7190 C   0  0  0  0  0  0  0  0  0  0  0  0
  -29.3860   11.8870    6.1860 C   0  0  0  0  0  0  0  0  0  0  0  0
  -28.4810   12.6360    5.4380 C   0  0  0  0  0  0  0  0  0  0  0  0
  -27.1840   12.1710    5.2020 C   0  0  0  0  0  0  0  0  0  0  0  0
  -26.8330   10.9170    5.7220 C   0  0  0  0  0  0  0  0  0  0  0  0
  -25.6480   10.2250    5.6280 N   0  0  0  0  0  0  0  0  0  0  0  0
  -25.7390    9.0100    6.2650 C   0  0  0  0  0  0  0  0  0  0  0  0
  -24.7810    8.0000    6.4100 C   0  0  0  0  0  0  0  0  0  0  0  0
  -25.1580    6.8410    7.0950 C   0  0  0  0  0  0  0  0  0  0  0  0
  -26.4450    6.7000    7.6080 C   0  0  0  0  0  0  0  0  0  0  0  0
  -27.3870    7.7250    7.4570 C   0  0  0  0  0  0  0  0  0  0  0  0
  -27.0310    8.9100    6.7800 C   0  0  0  0  0  0  0  0  0  0  0  0
  -27.7160   10.1280    6.4590 C   0  0  0  0  0  0  0  0  0  0  0  0
  -34.3817    5.6001    8.9309 H   0  0  0  0  0  0  0  0  0  0  0  0
  -34.8920    4.3079    7.7923 H   0  0  0  0  0  0  0  0  0  0  0  0
  -33.1908    4.8846    7.7923 H   0  0  0  0  0  0  0  0  0  0  0  0
  -35.6932    6.3024    6.7891 H   0  0  0  0  0  0  0  0  0  0  0  0
  -33.1172    5.2964    5.6364 H   0  0  0  0  0  0  0  0  0  0  0  0
  -34.7804    5.2915    4.9579 H   0  0  0  0  0  0  0  0  0  0  0  0
  -33.8148    6.8062    4.9579 H   0  0  0  0  0  0  0  0  0  0  0  0
  -34.0480    7.6220    8.3630 H   0  0  0  0  0  0  0  0  0  0  0  0
  -34.6220    8.3270    7.0030 H   0  0  0  0  0  0  0  0  0  0  0  0
  -31.9567    7.0647    7.0107 H   0  0  0  0  0  0  0  0  0  0  0  0
  -32.6754    8.0880    5.7440 H   0  0  0  0  0  0  0  0  0  0  0  0
  -31.6603    8.8684    8.5149 H   0  0  0  0  0  0  0  0  0  0  0  0
  -33.1780   10.4090    8.7400 H   0  0  0  0  0  0  0  0  0  0  0  0
  -31.0680    9.5069    5.7747 H   0  0  0  0  0  0  0  0  0  0  0  0
  -31.5445   10.9927    6.6446 H   0  0  0  0  0  0  0  0  0  0  0  0
  -30.4032   12.2686    6.3585 H   0  0  0  0  0  0  0  0  0  0  0  0
  -28.7914   13.6079    5.0268 H   0  0  0  0  0  0  0  0  0  0  0  0
  -26.4621   12.7695    4.6270 H   0  0  0  0  0  0  0  0  0  0  0  0
  -24.8260   10.5590    5.1480 H   0  0  0  0  0  0  0  0  0  0  0  0
  -23.7669    8.1141    5.9994 H   0  0  0  0  0  0  0  0  0  0  0  0
  -24.4280    6.0293    7.2306 H   0  0  0  0  0  0  0  0  0  0  0  0
  -26.7238    5.7761    8.1360 H   0  0  0  0  0  0  0  0  0  0  0  0
  -28.4016    7.6064    7.8651 H   0  0  0  0  0  0  0  0  0  0  0  0
  1  2  1  0
  2  3  1  0
  2  4  1  0
  4  5  1  0
  5  6  1  0
  6  7  1  0
  6  8  1  0
  8  9  1  0
  9 10  1  0
 10 11  1  0
 11 12  2  0
 12 13  1  0
 13 14  2  0
 14 15  1  0
 15 16  1  0
 16 17  2  0
 17 18  1  0
 18 19  2  0
 19 20  1  0
 20 21  2  0
 21 22  1  0
 22 10  2  0
 22 14  1  0
 21 16  1  0
  1 23  1  0
  1 24  1  0
  1 25  1  0
  2 26  1  0
  3 27  1  0
  3 28  1  0
  3 29  1  0
  4 30  1  0
  4 31  1  0
  5 32  1  0
  5 33  1  0
  6 34  1  0
  7 35  1  0
  8 36  1  0
  8 37  1  0
 11 38  1  0
 12 39  1  0
 13 40  1  0
 15 41  1  0
 17 42  1  0
 18 43  1  0
 19 44  1  0
 20 45  1  0
M  CHG  1   4   1
M  END
>  <meeko>  (1) 
{"is_sidechain": false}

>  <vina_kcal_mol>  (1) 
-10.033

$$$$
