formoterol
     RDKit          3D

 50 51  0  0  0  0  0  0  0  0999 V2000
  -38.5740    2.5550   11.0950 C   0  0  0  0  0  0  0  0  0  0  0  0
  -38.6430    3.5110   10.0410 O   0  0  0  0  0  0  0  0  0  0  0  0
  -37.4680    3.8600    9.4380 C   0  0  0  0  0  0  0  0  0  0  0  0
  -36.5650    2.9920    8.8270 C   0  0  0  0  0  0  0  0  0  0  0  0
  -35.3910    3.4890    8.2460 C   0  0  0  0  0  0  0  0  0  0  0  0
  -35.1100    4.8610    8.2670 C   0  0  0  0  0  0  0  0  0  0  0  0
  -33.8540    5.4000    7.6320 C   0  0  0  0  0  0  0  0  0  0  0  0
  -34.1260    6.5730    6.6690 C   0  0  0  0  0  0  0  0  0  0  0  0
  -33.4880    6.3660    5.2970 C   0  0  0  0  0  0  0  0  0  0  0  0
  -33.5530    7.8240    7.2830 N   0  0  0  0  0  0  0  0  0  0  0  0
  -32.3200    8.4060    6.6240 C   0  0  0  0  0  0  0  0  0  0  0  0
  -31.6680    9.3760    7.6350 C   0  0  0  0  0  0  0  0  0  0  0  0
  -32.7160   10.2330    8.1260 O   0  0  0  0  0  0  0  0  0  0  0  0
  -30.5460   10.1890    7.0420 C   0  0  0  0  0  0  0  0  0  0  0  0
  -30.7960   11.4300    6.4510 C   0  0  0  0  0  0  0  0  0  0  0  0
  -29.7520   12.1600    5.8920 C   0  0  0  0  0  0  0  0  0  0  0  0
  -28.4400   11.6750    5.9180 C   0  0  0  0  0  0  0  0  0  0  0  0
  -27.5480   12.5160    5.3230 O   0  0  0  0  0  0  0  0  0  0  0  0
  -28.1460   10.4430    6.5180 C   0  0  0  0  0  0  0  0  0  0  0  0
  -26.8750    9.8280    6.6400 N   0  0  0  0  0  0  0  0  0  0  0  0
  -26.0870    9.2660    5.6700 C   0  0  0  0  0  0  0  0  0  0  0  0
  -26.3280    9.1660    4.4770 O   0  0  0  0  0  0  0  0  0  0  0  0
  -29.2190    9.7140    7.0740 C   0  0  0  0  0  0  0  0  0  0  0  0
  -36.0200    5.7270    8.8830 C   0  0  0  0  0  0  0  0  0  0  0  0
  -37.1890    5.2270    9.4610 C   0  0  0  0  0  0  0  0  0  0  0  0
  -38.6115    3.0742   12.0640 H   0  0  0  0  0  0  0  0  0  0  0  0
  -39.4244    1.8617   11.0174 H   0  0  0  0  0  0  0  0  0  0  0  0
  -37.6328    1.9910   11.0174 H   0  0  0  0  0  0  0  0  0  0  0  0
  -36.7748    1.9125    8.8008 H   0  0  0  0  0  0  0  0  0  0  0  0
  -34.6832    2.7952    7.7688 H   0  0  0  0  0  0  0  0  0  0  0  0
  -33.1795    5.7483    8.4281 H   0  0  0  0  0  0  0  0  0  0  0  0
  -33.4055    4.5861    7.0434 H   0  0  0  0  0  0  0  0  0  0  0  0
  -35.2133    6.6467    6.5198 H   0  0  0  0  0  0  0  0  0  0  0  0
  -32.4486    6.0288    5.4231 H   0  0  0  0  0  0  0  0  0  0  0  0
  -34.0551    5.6058    4.7398 H   0  0  0  0  0  0  0  0  0  0  0  0
  -33.5008    7.3144    4.7398 H   0  0  0  0  0  0  0  0  0  0  0  0
  -34.2460    8.5950    7.2120 H   0  0  0  0  0  0  0  0  0  0  0  0
  -33.3980    7.7070    8.2920 H   0  0  0  0  0  0  0  0  0  0  0  0
  -31.6155    7.6010    6.3678 H   0  0  0  0  0  0  0  0  0  0  0  0
  -32.5885    8.9345    5.6974 H   0  0  0  0  0  0  0  0  0  0  0  0
  -31.2034    8.7949    8.4453 H   0  0  0  0  0  0  0  0  0  0  0  0
  -33.5640    9.8630    7.8000 H   0  0  0  0  0  0  0  0  0  0  0  0
  -31.8202   11.8306    6.4276 H   0  0  0  0  0  0  0  0  0  0  0  0
  -29.9611   13.1327    5.4227 H   0  0  0  0  0  0  0  0  0  0  0  0
  -27.7250   12.5740    4.3600 H   0  0  0  0  0  0  0  0  0  0  0  0
  -26.4710    9.8050    7.5700 H   0  0  0  0  0  0  0  0  0  0  0  0
  -25.1229    8.8563    6.0058 H   0  0  0  0  0  0  0  0  0  0  0  0
  -29.0131    8.7430    7.5480 H   0  0  0  0  0  0  0  0  0  0  0  0
  -35.8137    6.8071    8.9122 H   0  0  0  0  0  0  0  0  0  0  0  0
  -37.8978    5.9187    9.9398 H   0  0  0  0  0  0  0  0  0  0  0  0
  1  2  1  0
  2  3  1  0
  3  4  1  0
  4  5  2  0
  5  6  1  0
  6  7  1  0
  7  8  1  0
  8  9  1  0
  8 10  1  0
 10 11  1  0
 11 12  1  0
 12 13  1  0
 12 14  1  0
 14 15  1  0
 15 16  2  0
 16 17  1  0
 17 18  1  0
 17 19  2  0
 19 20  1  0
 20 21  1  0
 21 22  2  0
 19 23  1  0
  6 24  2  0
 24 25  1  0
 25  3  2  0
 23 14  2  0
  1 26  1  0
  1 27  1  0
  1 28  1  0
  4 29  1  0
  5 30  1  0
  7 31  1  0
  7 32  1  0
  8 33  1  0
  9 34  1  0
  9 35  1  0
  9 36  1  0
 10 37  1  0
 10 38  1  0
 11 39  1  0
 11 40  1  0
 12 41  1  0
 13 42  1  0
 15 43  1  0
 16 44  1  0
 18 45  1  0
 20 46  1  0
 21 47  1  0
 23 48  1  0
 24 49  1  0
 25 50  1  0
M  CHG  1  10   1
M  END
>  <meeko>  (1) 
{"is_sidechain": false}

>  <vina_kcal_mol>  (1) 
-9.394

$$$$
