isoprenalina
     RDKit          3D

 33 33  0  0  0  0  0  0  0  0999 V2000
  -32.4360    7.2570    5.2470 C   0  0  0  0  0  0  0  0  0  0  0  0
  -31.4570    7.9960    6.1480 C   0  0  0  0  0  0  0  0  0  0  0  0
  -31.4440    7.4090    7.5540 C   0  0  0  0  0  0  0  0  0  0  0  0
  -31.8580    9.4330    6.2550 N   0  0  0  0  0  0  0  0  0  0  0  0
  -31.3250   10.2030    7.4410 C   0  0  0  0  0  0  0  0  0  0  0  0
  -30.4510   11.3540    6.8980 C   0  0  0  0  0  0  0  0  0  0  0  0
  -30.5160   12.4220    7.8620 O   0  0  0  0  0  0  0  0  0  0  0  0
  -29.0230   10.9390    6.6430 C   0  0  0  0  0  0  0  0  0  0  0  0
  -28.4340    9.9000    7.3890 C   0  0  0  0  0  0  0  0  0  0  0  0
  -27.1210    9.4990    7.1380 C   0  0  0  0  0  0  0  0  0  0  0  0
  -26.3950   10.1390    6.1480 C   0  0  0  0  0  0  0  0  0  0  0  0
  -25.1120    9.7410    5.9090 O   0  0  0  0  0  0  0  0  0  0  0  0
  -26.9560   11.1740    5.4080 C   0  0  0  0  0  0  0  0  0  0  0  0
  -26.1750   11.7600    4.4530 O   0  0  0  0  0  0  0  0  0  0  0  0
  -28.2670   11.5800    5.6440 C   0  0  0  0  0  0  0  0  0  0  0  0
  -33.1619    6.7091    5.8658 H   0  0  0  0  0  0  0  0  0  0  0  0
  -32.9680    7.9808    4.6120 H   0  0  0  0  0  0  0  0  0  0  0  0
  -31.8857    6.5471    4.6120 H   0  0  0  0  0  0  0  0  0  0  0  0
  -30.4564    7.8963    5.7021 H   0  0  0  0  0  0  0  0  0  0  0  0
  -31.4621    8.2245    8.2920 H   0  0  0  0  0  0  0  0  0  0  0  0
  -32.3282    6.7695    7.6925 H   0  0  0  0  0  0  0  0  0  0  0  0
  -30.5324    6.8092    7.6925 H   0  0  0  0  0  0  0  0  0  0  0  0
  -31.6630    9.9390    5.3830 H   0  0  0  0  0  0  0  0  0  0  0  0
  -32.8900    9.5010    6.3650 H   0  0  0  0  0  0  0  0  0  0  0  0
  -32.1603   10.6118    8.0285 H   0  0  0  0  0  0  0  0  0  0  0  0
  -30.7333    9.5445    8.0939 H   0  0  0  0  0  0  0  0  0  0  0  0
  -30.8362   11.6746    5.9188 H   0  0  0  0  0  0  0  0  0  0  0  0
  -30.9110   13.1950    7.4080 H   0  0  0  0  0  0  0  0  0  0  0  0
  -29.0147    9.3993    8.1777 H   0  0  0  0  0  0  0  0  0  0  0  0
  -26.6679    8.6833    7.7204 H   0  0  0  0  0  0  0  0  0  0  0  0
  -25.0070    9.7750    4.9370 H   0  0  0  0  0  0  0  0  0  0  0  0
  -25.5360   12.3600    4.8750 H   0  0  0  0  0  0  0  0  0  0  0  0
  -28.7087   12.3962    5.0535 H   0  0  0  0  0  0  0  0  0  0  0  0
  1  2  1  0
  2  3  1  0
  2  4  1  0
  4  5  1  0
  5  6  1  0
  6  7  1  0
  6  8  1  0
  8  9  1  0
  9 10  2  0
 10 11  1  0
 11 12  1  0
 11 13  2  0
 13 14  1  0
 13 15  1  0
 15  8  2  0
  1 16  1  0
  1 17  1  0
  1 18  1  0
  2 19  1  0
  3 20  1  0
  3 21  1  0
  3 22  1  0
  4 23  1  0
  4 24  1  0
  5 25  1  0
  5 26  1  0
  6 27  1  0
  7 28  1  0
  9 29  1  0
 10 30  1  0
 12 31  1  0
 14 32  1  0
 15 33  1  0
M  CHG  1   4   1
M  END
>  <meeko>  (1) 
{"is_sidechain": false}

>  <vina_kcal_mol>  (1) 
-6.847

$$$$
