propranolol
     RDKit          3D

 41 42  0  0  0  0  0  0  0  0999 V2000
  -27.3180    3.8100    8.9880 C   0  0  0  0  0  0  0  0  0  0  0  0
  -26.2320    4.8640    9.1660 C   0  0  0  0  0  0  0  0  0  0  0  0
  -25.0470    4.3000    9.9420 C   0  0  0  0  0  0  0  0  0  0  0  0
  -25.7360    5.3160    7.8300 N   0  0  0  0  0  0  0  0  0  0  0  0
  -26.1950    6.6690    7.3470 C   0  0  0  0  0  0  0  0  0  0  0  0
  -24.9500    7.5010    7.0080 C   0  0  0  0  0  0  0  0  0  0  0  0
  -24.1570    7.5740    8.2140 O   0  0  0  0  0  0  0  0  0  0  0  0
  -25.2900    8.9180    6.5360 C   0  0  0  0  0  0  0  0  0  0  0  0
  -26.6900    8.9270    6.2570 O   0  0  0  0  0  0  0  0  0  0  0  0
  -27.2900   10.1430    6.0300 C   0  0  0  0  0  0  0  0  0  0  0  0
  -26.6360   11.2430    5.4650 C   0  0  0  0  0  0  0  0  0  0  0  0
  -27.3220   12.4400    5.2620 C   0  0  0  0  0  0  0  0  0  0  0  0
  -28.6620   12.5480    5.6230 C   0  0  0  0  0  0  0  0  0  0  0  0
  -29.3390   11.4650    6.2010 C   0  0  0  0  0  0  0  0  0  0  0  0
  -30.6890   11.5850    6.5680 C   0  0  0  0  0  0  0  0  0  0  0  0
  -31.3710   10.5160    7.1480 C   0  0  0  0  0  0  0  0  0  0  0  0
  -30.7120    9.3140    7.3700 C   0  0  0  0  0  0  0  0  0  0  0  0
  -29.3690    9.1810    7.0090 C   0  0  0  0  0  0  0  0  0  0  0  0
  -28.6530   10.2440    6.4150 C   0  0  0  0  0  0  0  0  0  0  0  0
  -27.6663    3.4720    9.9752 H   0  0  0  0  0  0  0  0  0  0  0  0
  -28.1614    4.2431    8.4302 H   0  0  0  0  0  0  0  0  0  0  0  0
  -26.9103    2.9541    8.4302 H   0  0  0  0  0  0  0  0  0  0  0  0
  -26.6712    5.7055    9.7218 H   0  0  0  0  0  0  0  0  0  0  0  0
  -25.2386    4.3912   11.0213 H   0  0  0  0  0  0  0  0  0  0  0  0
  -24.9097    3.2400    9.6823 H   0  0  0  0  0  0  0  0  0  0  0  0
  -24.1377    4.8619    9.6823 H   0  0  0  0  0  0  0  0  0  0  0  0
  -26.0340    4.6570    7.0800 H   0  0  0  0  0  0  0  0  0  0  0  0
  -24.7100    5.2750    7.7960 H   0  0  0  0  0  0  0  0  0  0  0  0
  -26.8211    6.5522    6.4502 H   0  0  0  0  0  0  0  0  0  0  0  0
  -26.7887    7.1707    8.1254 H   0  0  0  0  0  0  0  0  0  0  0  0
  -24.4122    7.0193    6.1781 H   0  0  0  0  0  0  0  0  0  0  0  0
  -24.7240    8.0310    8.8760 H   0  0  0  0  0  0  0  0  0  0  0  0
  -25.0549    9.6479    7.3246 H   0  0  0  0  0  0  0  0  0  0  0  0
  -24.7051    9.1919    5.6456 H   0  0  0  0  0  0  0  0  0  0  0  0
  -25.5766   11.1634    5.1798 H   0  0  0  0  0  0  0  0  0  0  0  0
  -26.8029   13.3009    4.8155 H   0  0  0  0  0  0  0  0  0  0  0  0
  -29.1961   13.4944    5.4527 H   0  0  0  0  0  0  0  0  0  0  0  0
  -31.2157   12.5352    6.3956 H   0  0  0  0  0  0  0  0  0  0  0  0
  -32.4289   10.6246    7.4291 H   0  0  0  0  0  0  0  0  0  0  0  0
  -31.2460    8.4689    7.8289 H   0  0  0  0  0  0  0  0  0  0  0  0
  -28.8565    8.2250    7.1918 H   0  0  0  0  0  0  0  0  0  0  0  0
  1  2  1  0
  2  3  1  0
  2  4  1  0
  4  5  1  0
  5  6  1  0
  6  7  1  0
  6  8  1  0
  8  9  1  0
  9 10  1  0
 10 11  2  0
 11 12  1  0
 12 13  2  0
 13 14  1  0
 14 15  2  0
 15 16  1  0
 16 17  2  0
 17 18  1  0
 18 19  2  0
 19 10  1  0
 19 14  1  0
  1 20  1  0
  1 21  1  0
  1 22  1  0
  2 23  1  0
  3 24  1  0
  3 25  1  0
  3 26  1  0
  4 27  1  0
  4 28  1  0
  5 29  1  0
  5 30  1  0
  6 31  1  0
  7 32  1  0
  8 33  1  0
  8 34  1  0
 11 35  1  0
 12 36  1  0
 13 37  1  0
 15 38  1  0
 16 39  1  0
 17 40  1  0
 18 41  1  0
M  CHG  1   4   1
M  END
>  <meeko>  (1) 
{"is_sidechain": false}

>  <vina_kcal_mol>  (1) 
-8.626

$$$$
