salbutamol
     RDKit          3D

 39 39  0  0  0  0  0  0  0  0999 V2000
  -33.3030    7.3340    7.2930 C   0  0  0  0  0  0  0  0  0  0  0  0
  -32.0430    7.9870    6.7210 C   0  0  0  0  0  0  0  0  0  0  0  0
  -30.7920    7.5640    7.4930 C   0  0  0  0  0  0  0  0  0  0  0  0
  -31.8930    7.6170    5.2390 C   0  0  0  0  0  0  0  0  0  0  0  0
  -32.1800    9.4840    6.7720 N   0  0  0  0  0  0  0  0  0  0  0  0
  -31.2610   10.2970    7.6580 C   0  0  0  0  0  0  0  0  0  0  0  0
  -30.8510   11.5730    6.8820 C   0  0  0  0  0  0  0  0  0  0  0  0
  -31.7770   11.6990    5.7930 O   0  0  0  0  0  0  0  0  0  0  0  0
  -29.4280   11.4770    6.3690 C   0  0  0  0  0  0  0  0  0  0  0  0
  -28.9100   12.5320    5.6010 C   0  0  0  0  0  0  0  0  0  0  0  0
  -27.5890   12.5030    5.1590 C   0  0  0  0  0  0  0  0  0  0  0  0
  -26.7750   11.4190    5.4710 C   0  0  0  0  0  0  0  0  0  0  0  0
  -25.4890   11.4800    5.0190 O   0  0  0  0  0  0  0  0  0  0  0  0
  -27.2560   10.3340    6.2110 C   0  0  0  0  0  0  0  0  0  0  0  0
  -26.4380    9.0930    6.4800 C   0  0  0  0  0  0  0  0  0  0  0  0
  -25.2930    9.3980    7.2720 O   0  0  0  0  0  0  0  0  0  0  0  0
  -28.5930   10.3780    6.6510 C   0  0  0  0  0  0  0  0  0  0  0  0
  -33.2607    7.3559    8.3920 H   0  0  0  0  0  0  0  0  0  0  0  0
  -34.1903    7.8857    6.9491 H   0  0  0  0  0  0  0  0  0  0  0  0
  -33.3638    6.2909    6.9491 H   0  0  0  0  0  0  0  0  0  0  0  0
  -30.9880    7.6303    8.5734 H   0  0  0  0  0  0  0  0  0  0  0  0
  -30.5319    6.5280    7.2304 H   0  0  0  0  0  0  0  0  0  0  0  0
  -29.9565    8.2296    7.2304 H   0  0  0  0  0  0  0  0  0  0  0  0
  -31.4809    6.6006    5.1547 H   0  0  0  0  0  0  0  0  0  0  0  0
  -32.8776    7.6552    4.7501 H   0  0  0  0  0  0  0  0  0  0  0  0
  -31.2129    8.3301    4.7501 H   0  0  0  0  0  0  0  0  0  0  0  0
  -33.1340    9.7480    7.0800 H   0  0  0  0  0  0  0  0  0  0  0  0
  -32.1070    9.8700    5.8180 H   0  0  0  0  0  0  0  0  0  0  0  0
  -31.7858   10.5758    8.5837 H   0  0  0  0  0  0  0  0  0  0  0  0
  -30.3699    9.7096    7.9244 H   0  0  0  0  0  0  0  0  0  0  0  0
  -30.8828   12.4544    7.5394 H   0  0  0  0  0  0  0  0  0  0  0  0
  -31.2520   11.9920    5.0210 H   0  0  0  0  0  0  0  0  0  0  0  0
  -29.5520   13.3881    5.3463 H   0  0  0  0  0  0  0  0  0  0  0  0
  -27.1898   13.3372    4.5634 H   0  0  0  0  0  0  0  0  0  0  0  0
  -25.4800   12.1020    4.2570 H   0  0  0  0  0  0  0  0  0  0  0  0
  -27.0606    8.3606    7.0148 H   0  0  0  0  0  0  0  0  0  0  0  0
  -26.0992    8.6811    5.5179 H   0  0  0  0  0  0  0  0  0  0  0  0
  -25.5630   10.1030    7.8890 H   0  0  0  0  0  0  0  0  0  0  0  0
  -28.9954    9.5332    7.2293 H   0  0  0  0  0  0  0  0  0  0  0  0
  1  2  1  0
  2  3  1  0
  2  4  1  0
  2  5  1  0
  5  6  1  0
  6  7  1  0
  7  8  1  0
  7  9  1  0
  9 10  1  0
 10 11  2  0
 11 12  1  0
 12 13  1  0
 12 14  2  0
 14 15  1  0
 15 16  1  0
 14 17  1  0
 17  9  2  0
  1 18  1  0
  1 19  1  0
  1 20  1  0
  3 21  1  0
  3 22  1  0
  3 23  1  0
  4 24  1  0
  4 25  1  0
  4 26  1  0
  5 27  1  0
  5 28  1  0
  6 29  1  0
  6 30  1  0
  7 31  1  0
  8 32  1  0
 10 33  1  0
 11 34  1  0
 13 35  1  0
 15 36  1  0
 15 37  1  0
 16 38  1  0
 17 39  1  0
M  CHG  1   5   1
M  END
>  <meeko>  (1) 
{"is_sidechain": false}

>  <vina_kcal_mol>  (1) 
-7.806

$$$$
