salmeterol
     RDKit          3D

 68 69  0  0  0  0  0  0  0  0999 V2000
  -25.8690   11.4780    4.3280 O   0  0  0  0  0  0  0  0  0  0  0  0
  -26.6730   12.0260    5.3700 C   0  0  0  0  0  0  0  0  0  0  0  0
  -27.5140   10.9460    6.0000 C   0  0  0  0  0  0  0  0  0  0  0  0
  -28.9180   11.0390    5.9970 C   0  0  0  0  0  0  0  0  0  0  0  0
  -29.7350   10.0680    6.6110 C   0  0  0  0  0  0  0  0  0  0  0  0
  -31.2350   10.2800    6.5740 C   0  0  0  0  0  0  0  0  0  0  0  0
  -31.4910   11.6030    6.0590 O   0  0  0  0  0  0  0  0  0  0  0  0
  -32.0040   10.2030    7.9150 C   0  0  0  0  0  0  0  0  0  0  0  0
  -33.0670    9.1350    7.7810 N   0  0  0  0  0  0  0  0  0  0  0  0
  -32.7370    7.9160    7.0050 C   0  0  0  0  0  0  0  0  0  0  0  0
  -32.0960    6.8240    7.8570 C   0  0  0  0  0  0  0  0  0  0  0  0
  -32.9200    5.5510    8.0700 C   0  0  0  0  0  0  0  0  0  0  0  0
  -34.2760    5.5600    7.3600 C   0  0  0  0  0  0  0  0  0  0  0  0
  -34.7080    4.1900    6.8190 C   0  0  0  0  0  0  0  0  0  0  0  0
  -35.2000    3.2120    7.8860 C   0  0  0  0  0  0  0  0  0  0  0  0
  -34.1310    2.3500    8.2590 O   0  0  0  0  0  0  0  0  0  0  0  0
  -34.1350    1.9950    9.6450 C   0  0  0  0  0  0  0  0  0  0  0  0
  -33.3750    3.0060   10.5080 C   0  0  0  0  0  0  0  0  0  0  0  0
  -34.2640    3.6320   11.5920 C   0  0  0  0  0  0  0  0  0  0  0  0
  -34.7660    5.0320   11.2170 C   0  0  0  0  0  0  0  0  0  0  0  0
  -36.2130    5.0700   10.7920 C   0  0  0  0  0  0  0  0  0  0  0  0
  -37.0550    3.9790   11.0440 C   0  0  0  0  0  0  0  0  0  0  0  0
  -38.3960    4.0170   10.6590 C   0  0  0  0  0  0  0  0  0  0  0  0
  -38.9070    5.1450   10.0180 C   0  0  0  0  0  0  0  0  0  0  0  0
  -38.0780    6.2350    9.7640 C   0  0  0  0  0  0  0  0  0  0  0  0
  -36.7360    6.1990   10.1490 C   0  0  0  0  0  0  0  0  0  0  0  0
  -29.1040    8.9800    7.2310 C   0  0  0  0  0  0  0  0  0  0  0  0
  -27.7080    8.8830    7.2610 C   0  0  0  0  0  0  0  0  0  0  0  0
  -26.9260    9.8660    6.6590 C   0  0  0  0  0  0  0  0  0  0  0  0
  -25.5640    9.7850    6.7080 O   0  0  0  0  0  0  0  0  0  0  0  0
  -25.5850   10.6000    4.6420 H   0  0  0  0  0  0  0  0  0  0  0  0
  -26.0212   12.4722    6.1356 H   0  0  0  0  0  0  0  0  0  0  0  0
  -27.3350   12.7954    4.9461 H   0  0  0  0  0  0  0  0  0  0  0  0
  -29.3935   11.8971    5.4995 H   0  0  0  0  0  0  0  0  0  0  0  0
  -31.5981    9.4429    5.9597 H   0  0  0  0  0  0  0  0  0  0  0  0
  -30.6430   11.9470    5.7080 H   0  0  0  0  0  0  0  0  0  0  0  0
  -31.3114    9.9410    8.7284 H   0  0  0  0  0  0  0  0  0  0  0  0
  -32.4642   11.1743    8.1490 H   0  0  0  0  0  0  0  0  0  0  0  0
  -33.8890    9.6350    7.3940 H   0  0  0  0  0  0  0  0  0  0  0  0
  -33.3980    8.8750    8.7190 H   0  0  0  0  0  0  0  0  0  0  0  0
  -33.6635    7.5189    6.5647 H   0  0  0  0  0  0  0  0  0  0  0  0
  -32.0072    8.2035    6.2338 H   0  0  0  0  0  0  0  0  0  0  0  0
  -31.1518    6.5337    7.3731 H   0  0  0  0  0  0  0  0  0  0  0  0
  -31.9799    7.2662    8.8575 H   0  0  0  0  0  0  0  0  0  0  0  0
  -32.3387    4.6960    7.6943 H   0  0  0  0  0  0  0  0  0  0  0  0
  -33.1262    5.4826    9.1483 H   0  0  0  0  0  0  0  0  0  0  0  0
  -35.0379    5.9055    8.0743 H   0  0  0  0  0  0  0  0  0  0  0  0
  -34.1753    6.2273    6.4913 H   0  0  0  0  0  0  0  0  0  0  0  0
  -35.5220    4.3475    6.0961 H   0  0  0  0  0  0  0  0  0  0  0  0
  -33.8132    3.7360    6.3681 H   0  0  0  0  0  0  0  0  0  0  0  0
  -35.5455    3.7722    8.7673 H   0  0  0  0  0  0  0  0  0  0  0  0
  -36.0329    2.6158    7.4850 H   0  0  0  0  0  0  0  0  0  0  0  0
  -35.1770    1.9452    9.9940 H   0  0  0  0  0  0  0  0  0  0  0  0
  -33.6302    1.0227    9.7439 H   0  0  0  0  0  0  0  0  0  0  0  0
  -32.5323    2.4929   10.9945 H   0  0  0  0  0  0  0  0  0  0  0  0
  -33.0267    3.8155    9.8497 H   0  0  0  0  0  0  0  0  0  0  0  0
  -35.1341    2.9785   11.7529 H   0  0  0  0  0  0  0  0  0  0  0  0
  -33.6539    3.7327   12.5018 H   0  0  0  0  0  0  0  0  0  0  0  0
  -34.6445    5.6889   12.0909 H   0  0  0  0  0  0  0  0  0  0  0  0
  -34.1711    5.3633   10.3531 H   0  0  0  0  0  0  0  0  0  0  0  0
  -36.6566    3.0865   11.5487 H   0  0  0  0  0  0  0  0  0  0  0  0
  -39.0504    3.1563   10.8614 H   0  0  0  0  0  0  0  0  0  0  0  0
  -39.9636    5.1739    9.7133 H   0  0  0  0  0  0  0  0  0  0  0  0
  -38.4809    7.1256    9.2594 H   0  0  0  0  0  0  0  0  0  0  0  0
  -36.0857    7.0627    9.9460 H   0  0  0  0  0  0  0  0  0  0  0  0
  -29.7135    8.1932    7.6995 H   0  0  0  0  0  0  0  0  0  0  0  0
  -27.2276    8.0290    7.7609 H   0  0  0  0  0  0  0  0  0  0  0  0
  -25.1790   10.6770    6.7170 H   0  0  0  0  0  0  0  0  0  0  0  0
  1  2  1  0
  2  3  1  0
  3  4  1  0
  4  5  2  0
  5  6  1  0
  6  7  1  0
  6  8  1  0
  8  9  1  0
  9 10  1  0
 10 11  1  0
 11 12  1  0
 12 13  1  0
 13 14  1  0
 14 15  1  0
 15 16  1  0
 16 17  1  0
 17 18  1  0
 18 19  1  0
 19 20  1  0
 20 21  1  0
 21 22  2  0
 22 23  1  0
 23 24  2  0
 24 25  1  0
 25 26  2  0
  5 27  1  0
 27 28  2  0
 28 29  1  0
 29 30  1  0
 29  3  2  0
 26 21  1  0
  1 31  1  0
  2 32  1  0
  2 33  1  0
  4 34  1  0
  6 35  1  0
  7 36  1  0
  8 37  1  0
  8 38  1  0
  9 39  1  0
  9 40  1  0
 10 41  1  0
 10 42  1  0
 11 43  1  0
 11 44  1  0
 12 45  1  0
 12 46  1  0
 13 47  1  0
 13 48  1  0
 14 49  1  0
 14 50  1  0
 15 51  1  0
 15 52  1  0
 17 53  1  0
 17 54  1  0
 18 55  1  0
 18 56  1  0
 19 57  1  0
 19 58  1  0
 20 59  1  0
 20 60  1  0
 22 61  1  0
 23 62  1  0
 24 63  1  0
 25 64  1  0
 26 65  1  0
 27 66  1  0
 28 67  1  0
 30 68  1  0
M  CHG  1   9   1
M  END
>  <meeko>  (1) 
{"is_sidechain": false}

>  <vina_kcal_mol>  (1) 
-8.426

$$$$
