timolol
     RDKit          3D

 46 47  0  0  0  0  0  0  0  0999 V2000
  -34.0410    5.4820    6.0800 C   0  0  0  0  0  0  0  0  0  0  0  0
  -34.0000    6.0500    7.5000 C   0  0  0  0  0  0  0  0  0  0  0  0
  -35.3110    5.7870    8.2490 C   0  0  0  0  0  0  0  0  0  0  0  0
  -32.8260    5.4350    8.2790 C   0  0  0  0  0  0  0  0  0  0  0  0
  -33.7410    7.5360    7.4460 N   0  0  0  0  0  0  0  0  0  0  0  0
  -32.4270    8.0390    6.8860 C   0  0  0  0  0  0  0  0  0  0  0  0
  -32.1080    9.3590    7.6050 C   0  0  2  0  0  0  0  0  0  0  0  0
  -33.3830    9.9480    7.9380 O   0  0  0  0  0  0  0  0  0  0  0  0
  -31.2190   10.3070    6.7860 C   0  0  0  0  0  0  0  0  0  0  0  0
  -29.8470   10.1930    7.1770 O   0  0  0  0  0  0  0  0  0  0  0  0
  -29.0170   11.0040    6.4660 C   0  0  0  0  0  0  0  0  0  0  0  0
  -29.5090   12.2010    6.1250 N   0  0  0  0  0  0  0  0  0  0  0  0
  -28.2700   12.9060    5.2500 S   0  0  0  0  0  0  0  0  0  0  0  0
  -27.1090   11.7260    5.3710 N   0  0  0  0  0  0  0  0  0  0  0  0
  -27.6300   10.7250    6.0940 C   0  0  0  0  0  0  0  0  0  0  0  0
  -26.9060    9.5940    6.4060 N   0  0  0  0  0  0  0  0  0  0  0  0
  -27.5650    8.6320    7.3290 C   0  0  0  0  0  0  0  0  0  0  0  0
  -26.8430    7.2800    7.3490 C   0  0  0  0  0  0  0  0  0  0  0  0
  -25.4500    7.4400    7.6500 O   0  0  0  0  0  0  0  0  0  0  0  0
  -24.8300    8.2390    6.6400 C   0  0  0  0  0  0  0  0  0  0  0  0
  -25.4420    9.6470    6.5800 C   0  0  0  0  0  0  0  0  0  0  0  0
  -34.1201    4.3858    6.1257 H   0  0  0  0  0  0  0  0  0  0  0  0
  -34.9120    5.8906    5.5467 H   0  0  0  0  0  0  0  0  0  0  0  0
  -33.1204    5.7612    5.5467 H   0  0  0  0  0  0  0  0  0  0  0  0
  -35.1277    5.8238    9.3330 H   0  0  0  0  0  0  0  0  0  0  0  0
  -36.0498    6.5548    7.9758 H   0  0  0  0  0  0  0  0  0  0  0  0
  -35.6965    4.7936    7.9758 H   0  0  0  0  0  0  0  0  0  0  0  0
  -33.0115    5.5322    9.3589 H   0  0  0  0  0  0  0  0  0  0  0  0
  -32.7300    4.3708    8.0178 H   0  0  0  0  0  0  0  0  0  0  0  0
  -31.8965    5.9620    8.0178 H   0  0  0  0  0  0  0  0  0  0  0  0
  -33.8800    7.9520    8.3750 H   0  0  0  0  0  0  0  0  0  0  0  0
  -34.4560    7.9910    6.8460 H   0  0  0  0  0  0  0  0  0  0  0  0
  -31.6303    7.3043    7.0741 H   0  0  0  0  0  0  0  0  0  0  0  0
  -32.4962    8.1910    5.7988 H   0  0  0  0  0  0  0  0  0  0  0  0
  -31.5085    9.1646    8.5066 H   0  0  0  0  0  0  0  0  0  0  0  0
  -33.8330    9.3660    8.5830 H   0  0  0  0  0  0  0  0  0  0  0  0
  -31.3108   10.0539    5.7195 H   0  0  0  0  0  0  0  0  0  0  0  0
  -31.5495   11.3403    6.9680 H   0  0  0  0  0  0  0  0  0  0  0  0
  -27.5611    9.0532    8.3451 H   0  0  0  0  0  0  0  0  0  0  0  0
  -28.5932    8.4664    6.9748 H   0  0  0  0  0  0  0  0  0  0  0  0
  -27.3040    6.6384    8.1144 H   0  0  0  0  0  0  0  0  0  0  0  0
  -26.9336    6.8221    6.3529 H   0  0  0  0  0  0  0  0  0  0  0  0
  -23.7561    8.3254    6.8620 H   0  0  0  0  0  0  0  0  0  0  0  0
  -24.9913    7.7513    5.6673 H   0  0  0  0  0  0  0  0  0  0  0  0
  -25.2124   10.1766    7.5164 H   0  0  0  0  0  0  0  0  0  0  0  0
  -25.0109   10.1738    5.7159 H   0  0  0  0  0  0  0  0  0  0  0  0
  1  2  1  0
  2  3  1  0
  2  4  1  0
  2  5  1  0
  5  6  1  0
  6  7  1  0
  7  8  1  0
  7  9  1  0
  9 10  1  0
 10 11  1  0
 11 12  2  0
 12 13  1  0
 13 14  1  0
 14 15  2  0
 15 16  1  0
 16 17  1  0
 17 18  1  0
 18 19  1  0
 19 20  1  0
 20 21  1  0
 15 11  1  0
 21 16  1  0
  1 22  1  0
  1 23  1  0
  1 24  1  0
  3 25  1  0
  3 26  1  0
  3 27  1  0
  4 28  1  0
  4 29  1  0
  4 30  1  0
  5 31  1  0
  5 32  1  0
  6 33  1  0
  6 34  1  0
  7 35  1  1
  8 36  1  0
  9 37  1  0
  9 38  1  0
 17 39  1  0
 17 40  1  0
 18 41  1  0
 18 42  1  0
 20 43  1  0
 20 44  1  0
 21 45  1  0
 21 46  1  0
M  CHG  1   5   1
M  END
>  <meeko>  (1) 
{"is_sidechain": false}

>  <vina_kcal_mol>  (1) 
-8.006

$$$$
