pose 1
     RDKit          3D

 58 62  0  0  0  0  0  0  0  0999 V2000
   10.0690    5.1040  -14.5940 C   0  0  0  0  0  0  0  0  0  0  0  0
    8.8070    4.5990  -13.9420 C   0  0  0  0  0  0  0  0  0  0  0  0
    8.3550    3.4290  -14.4870 N   0  0  0  0  0  0  0  0  0  0  0  0
    7.2850    2.8750  -14.0140 C   0  0  0  0  0  0  0  0  0  0  0  0
    6.5340    3.4230  -13.0030 N   0  0  0  0  0  0  0  0  0  0  0  0
    6.9400    4.5960  -12.4070 C   0  0  0  0  0  0  0  0  0  0  0  0
    6.3420    5.1580  -11.4860 O   0  0  0  0  0  0  0  0  0  0  0  0
    8.1810    5.2290  -12.9350 C   0  0  0  0  0  0  0  0  0  0  0  0
    8.6110    6.4810  -12.2190 C   0  0  0  0  0  0  0  0  0  0  0  0
   10.0160    6.3350  -11.6160 C   0  0  0  0  0  0  0  0  0  0  0  0
   10.1360    7.1070  -10.3070 N   0  0  0  0  0  0  0  0  0  0  0  0
   11.4670    7.8150  -10.1750 C   0  0  0  0  0  0  0  0  0  0  0  0
   11.4140    8.7850   -8.9990 C   0  0  0  0  0  0  0  0  0  0  0  0
   10.4970    8.3060   -7.8620 C   0  0  0  0  0  0  0  0  0  0  0  0
   10.8530    8.9160   -6.5420 C   0  0  0  0  0  0  0  0  0  0  0  0
   10.8230   10.2510   -6.4320 N   0  0  0  0  0  0  0  0  0  0  0  0
   11.1960   10.5350   -5.1310 O   0  0  0  0  0  0  0  0  0  0  0  0
   11.4460    9.3770   -4.4660 C   0  0  0  0  0  0  0  0  0  0  0  0
   11.8470    9.2680   -3.1380 C   0  0  0  0  0  0  0  0  0  0  0  0
   12.0440    7.9700   -2.6760 C   0  0  0  0  0  0  0  0  0  0  0  0
   12.4320    7.7840   -1.4080 F   0  0  0  0  0  0  0  0  0  0  0  0
   11.8550    6.8540   -3.4920 C   0  0  0  0  0  0  0  0  0  0  0  0
   11.4510    7.0020   -4.8270 C   0  0  0  0  0  0  0  0  0  0  0  0
   11.2420    8.3040   -5.3190 C   0  0  0  0  0  0  0  0  0  0  0  0
   10.4330    6.7800   -7.8230 C   0  0  0  0  0  0  0  0  0  0  0  0
    9.8580    6.2060   -9.1170 C   0  0  0  0  0  0  0  0  0  0  0  0
    5.4070    2.7230  -12.3930 C   0  0  0  0  0  0  0  0  0  0  0  0
    4.7960    1.6330  -13.2570 C   0  0  0  0  0  0  0  0  0  0  0  0
    5.9020    0.7530  -13.8080 C   0  0  0  0  0  0  0  0  0  0  0  0
    6.8140    1.5940  -14.6770 C   0  0  0  0  0  0  0  0  0  0  0  0
   10.7924    5.3935  -13.8175 H   0  0  0  0  0  0  0  0  0  0  0  0
   10.5014    4.3096  -15.2201 H   0  0  0  0  0  0  0  0  0  0  0  0
    9.8341    5.9774  -15.2201 H   0  0  0  0  0  0  0  0  0  0  0  0
    8.6147    7.3172  -12.9336 H   0  0  0  0  0  0  0  0  0  0  0  0
    7.9028    6.6677  -11.3983 H   0  0  0  0  0  0  0  0  0  0  0  0
   10.2156    5.2704  -11.4245 H   0  0  0  0  0  0  0  0  0  0  0  0
   10.7461    6.7437  -12.3301 H   0  0  0  0  0  0  0  0  0  0  0  0
    9.4010    7.8290  -10.3230 H   0  0  0  0  0  0  0  0  0  0  0  0
   12.2610    7.0734  -10.0028 H   0  0  0  0  0  0  0  0  0  0  0  0
   11.6787    8.3719  -11.0997 H   0  0  0  0  0  0  0  0  0  0  0  0
   12.4318    8.9070   -8.5999 H   0  0  0  0  0  0  0  0  0  0  0  0
   11.0021    9.7332   -9.3747 H   0  0  0  0  0  0  0  0  0  0  0  0
    9.4798    8.6651   -8.0772 H   0  0  0  0  0  0  0  0  0  0  0  0
   11.9982   10.1486   -2.4964 H   0  0  0  0  0  0  0  0  0  0  0  0
   12.0248    5.8468   -3.0837 H   0  0  0  0  0  0  0  0  0  0  0  0
   11.3015    6.1238   -5.4723 H   0  0  0  0  0  0  0  0  0  0  0  0
   11.4489    6.3841   -7.6777 H   0  0  0  0  0  0  0  0  0  0  0  0
    9.7731    6.4852   -6.9937 H   0  0  0  0  0  0  0  0  0  0  0  0
   10.3122    5.2214   -9.3023 H   0  0  0  0  0  0  0  0  0  0  0  0
    8.7675    6.1230   -8.9989 H   0  0  0  0  0  0  0  0  0  0  0  0
    5.7552    2.2633  -11.4563 H   0  0  0  0  0  0  0  0  0  0  0  0
    4.6198    3.4756  -12.2382 H   0  0  0  0  0  0  0  0  0  0  0  0
    4.1096    1.0242  -12.6501 H   0  0  0  0  0  0  0  0  0  0  0  0
    4.2390    2.0898  -14.0884 H   0  0  0  0  0  0  0  0  0  0  0  0
    6.4791    0.3219  -12.9767 H   0  0  0  0  0  0  0  0  0  0  0  0
    5.4663   -0.0615  -14.4054 H   0  0  0  0  0  0  0  0  0  0  0  0
    7.6979    0.9924  -14.9354 H   0  0  0  0  0  0  0  0  0  0  0  0
    6.2303    1.8881  -15.5617 H   0  0  0  0  0  0  0  0  0  0  0  0
  1  2  1  0
  2  3  1  0
  3  4  2  0
  4  5  1  0
  5  6  1  0
  6  7  2  0
  6  8  1  0
  8  9  1  0
  9 10  1  0
 10 11  1  0
 11 12  1  0
 12 13  1  0
 13 14  1  0
 14 15  1  0
 15 16  2  0
 16 17  1  0
 17 18  1  0
 18 19  2  0
 19 20  1  0
 20 21  1  0
 20 22  2  0
 22 23  1  0
 23 24  2  0
 14 25  1  0
 25 26  1  0
  5 27  1  0
 27 28  1  0
 28 29  1  0
 29 30  1  0
  8  2  2  0
 26 11  1  0
 30  4  1  0
 24 15  1  0
 24 18  1  0
  1 31  1  0
  1 32  1  0
  1 33  1  0
  9 34  1  0
  9 35  1  0
 10 36  1  0
 10 37  1  0
 11 38  1  0
 12 39  1  0
 12 40  1  0
 13 41  1  0
 13 42  1  0
 14 43  1  0
 19 44  1  0
 22 45  1  0
 23 46  1  0
 25 47  1  0
 25 48  1  0
 26 49  1  0
 26 50  1  0
 27 51  1  0
 27 52  1  0
 28 53  1  0
 28 54  1  0
 29 55  1  0
 29 56  1  0
 30 57  1  0
 30 58  1  0
M  CHG  1  11   1
M  END
>  <meeko>  (1) 
{"is_sidechain": false}

>  <vina_kcal_mol>  (1) 
-12.373

>  <rmsd_cristal>  (1) 
2.48

$$$$
pose 2
     RDKit          3D

 58 62  0  0  0  0  0  0  0  0999 V2000
   11.7750    5.6350  -13.5410 C   0  0  0  0  0  0  0  0  0  0  0  0
   10.6720    4.6370  -13.7890 C   0  0  0  0  0  0  0  0  0  0  0  0
   11.0820    3.5570  -14.5210 N   0  0  0  0  0  0  0  0  0  0  0  0
   10.2380    2.6160  -14.7970 C   0  0  0  0  0  0  0  0  0  0  0  0
    8.9150    2.6540  -14.4300 N   0  0  0  0  0  0  0  0  0  0  0  0
    8.4410    3.7110  -13.6850 C   0  0  0  0  0  0  0  0  0  0  0  0
    7.2770    3.8280  -13.2960 O   0  0  0  0  0  0  0  0  0  0  0  0
    9.4120    4.7890  -13.3470 C   0  0  0  0  0  0  0  0  0  0  0  0
    8.8620    5.8970  -12.4900 C   0  0  0  0  0  0  0  0  0  0  0  0
    8.4530    5.3890  -11.1000 C   0  0  0  0  0  0  0  0  0  0  0  0
    9.0290    6.2730   -9.9990 N   0  0  0  0  0  0  0  0  0  0  0  0
   10.2900    6.9870  -10.4340 C   0  0  0  0  0  0  0  0  0  0  0  0
   10.6490    8.0570   -9.4070 C   0  0  0  0  0  0  0  0  0  0  0  0
   10.2380    7.6820   -7.9750 C   0  0  0  0  0  0  0  0  0  0  0  0
   11.0410    8.4050   -6.9390 C   0  0  0  0  0  0  0  0  0  0  0  0
   11.5360    9.6120   -7.2490 N   0  0  0  0  0  0  0  0  0  0  0  0
   12.2280   10.0380   -6.1300 O   0  0  0  0  0  0  0  0  0  0  0  0
   12.1470    9.0940   -5.1570 C   0  0  0  0  0  0  0  0  0  0  0  0
   12.7230    9.1730   -3.8940 C   0  0  0  0  0  0  0  0  0  0  0  0
   12.5030    8.0760   -3.0650 C   0  0  0  0  0  0  0  0  0  0  0  0
   13.0260    8.0780   -1.8320 F   0  0  0  0  0  0  0  0  0  0  0  0
   11.7570    6.9720   -3.4770 C   0  0  0  0  0  0  0  0  0  0  0  0
   11.1920    6.9260   -4.7590 C   0  0  0  0  0  0  0  0  0  0  0  0
   11.3970    8.0230   -5.6170 C   0  0  0  0  0  0  0  0  0  0  0  0
   10.2400    6.1650   -7.7890 C   0  0  0  0  0  0  0  0  0  0  0  0
    9.2410    5.4820   -8.7220 C   0  0  0  0  0  0  0  0  0  0  0  0
    8.0100    1.5270  -14.6340 C   0  0  0  0  0  0  0  0  0  0  0  0
    8.4460    0.5530  -15.7140 C   0  0  0  0  0  0  0  0  0  0  0  0
    9.9070    0.1980  -15.5090 C   0  0  0  0  0  0  0  0  0  0  0  0
   10.7410    1.4560  -15.6380 C   0  0  0  0  0  0  0  0  0  0  0  0
   11.9167    5.7632  -12.4577 H   0  0  0  0  0  0  0  0  0  0  0  0
   12.7090    5.2689  -13.9922 H   0  0  0  0  0  0  0  0  0  0  0  0
   11.5038    6.6009  -13.9922 H   0  0  0  0  0  0  0  0  0  0  0  0
    9.6323    6.6736  -12.3735 H   0  0  0  0  0  0  0  0  0  0  0  0
    7.9667    6.3015  -12.9848 H   0  0  0  0  0  0  0  0  0  0  0  0
    7.3555    5.3920  -11.0254 H   0  0  0  0  0  0  0  0  0  0  0  0
    8.8474    4.3703  -10.9712 H   0  0  0  0  0  0  0  0  0  0  0  0
    8.3180    6.9920   -9.7990 H   0  0  0  0  0  0  0  0  0  0  0  0
   11.1137    6.2620  -10.5114 H   0  0  0  0  0  0  0  0  0  0  0  0
   10.1243    7.4598  -11.4133 H   0  0  0  0  0  0  0  0  0  0  0  0
   11.7378    8.2119   -9.4292 H   0  0  0  0  0  0  0  0  0  0  0  0
   10.0969    8.9690   -9.6778 H   0  0  0  0  0  0  0  0  0  0  0  0
    9.2033    8.0231   -7.8229 H   0  0  0  0  0  0  0  0  0  0  0  0
   13.3129   10.0436   -3.5713 H   0  0  0  0  0  0  0  0  0  0  0  0
   11.6103    6.1274   -2.7878 H   0  0  0  0  0  0  0  0  0  0  0  0
   10.6040    6.0557   -5.0859 H   0  0  0  0  0  0  0  0  0  0  0  0
   11.2482    5.7806   -8.0027 H   0  0  0  0  0  0  0  0  0  0  0  0
    9.9472    5.9454   -6.7517 H   0  0  0  0  0  0  0  0  0  0  0  0
    9.6218    4.4831   -8.9813 H   0  0  0  0  0  0  0  0  0  0  0  0
    8.2761    5.4143   -8.1983 H   0  0  0  0  0  0  0  0  0  0  0  0
    7.9306    0.9749  -13.6859 H   0  0  0  0  0  0  0  0  0  0  0  0
    7.0521    1.9530  -14.9670 H   0  0  0  0  0  0  0  0  0  0  0  0
    7.8344   -0.3593  -15.6547 H   0  0  0  0  0  0  0  0  0  0  0  0
    8.3146    1.0164  -16.7030 H   0  0  0  0  0  0  0  0  0  0  0  0
   10.0446   -0.2350  -14.5072 H   0  0  0  0  0  0  0  0  0  0  0  0
   10.2215   -0.5365  -16.2651 H   0  0  0  0  0  0  0  0  0  0  0  0
   11.7700    1.2229  -15.3267 H   0  0  0  0  0  0  0  0  0  0  0  0
   10.6799    1.7735  -16.6894 H   0  0  0  0  0  0  0  0  0  0  0  0
  1  2  1  0
  2  3  1  0
  3  4  2  0
  4  5  1  0
  5  6  1  0
  6  7  2  0
  6  8  1  0
  8  9  1  0
  9 10  1  0
 10 11  1  0
 11 12  1  0
 12 13  1  0
 13 14  1  0
 14 15  1  0
 15 16  2  0
 16 17  1  0
 17 18  1  0
 18 19  2  0
 19 20  1  0
 20 21  1  0
 20 22  2  0
 22 23  1  0
 23 24  2  0
 14 25  1  0
 25 26  1  0
  5 27  1  0
 27 28  1  0
 28 29  1  0
 29 30  1  0
  8  2  2  0
 26 11  1  0
 30  4  1  0
 24 15  1  0
 24 18  1  0
  1 31  1  0
  1 32  1  0
  1 33  1  0
  9 34  1  0
  9 35  1  0
 10 36  1  0
 10 37  1  0
 11 38  1  0
 12 39  1  0
 12 40  1  0
 13 41  1  0
 13 42  1  0
 14 43  1  0
 19 44  1  0
 22 45  1  0
 23 46  1  0
 25 47  1  0
 25 48  1  0
 26 49  1  0
 26 50  1  0
 27 51  1  0
 27 52  1  0
 28 53  1  0
 28 54  1  0
 29 55  1  0
 29 56  1  0
 30 57  1  0
 30 58  1  0
M  CHG  1  11   1
M  END
>  <meeko>  (2) 
{"is_sidechain": false}

>  <vina_kcal_mol>  (2) 
-12.242

>  <rmsd_cristal>  (2) 
1.98

$$$$
pose 3
     RDKit          3D

 58 62  0  0  0  0  0  0  0  0999 V2000
    8.0770    3.6030  -14.0810 C   0  0  0  0  0  0  0  0  0  0  0  0
    9.2760    4.4830  -14.3290 C   0  0  0  0  0  0  0  0  0  0  0  0
    9.5590    4.6400  -15.6570 N   0  0  0  0  0  0  0  0  0  0  0  0
   10.5570    5.3830  -16.0140 C   0  0  0  0  0  0  0  0  0  0  0  0
   11.3960    6.0030  -15.1200 N   0  0  0  0  0  0  0  0  0  0  0  0
   11.1600    5.8900  -13.7680 C   0  0  0  0  0  0  0  0  0  0  0  0
   11.8460    6.4200  -12.8910 O   0  0  0  0  0  0  0  0  0  0  0  0
   10.0010    5.0520  -13.3520 C   0  0  0  0  0  0  0  0  0  0  0  0
    9.7540    5.0000  -11.8680 C   0  0  0  0  0  0  0  0  0  0  0  0
    8.7150    6.0420  -11.4290 C   0  0  0  0  0  0  0  0  0  0  0  0
    9.1790    6.7940  -10.1860 N   0  0  0  0  0  0  0  0  0  0  0  0
   10.2800    7.7870  -10.4920 C   0  0  0  0  0  0  0  0  0  0  0  0
   10.4960    8.6940   -9.2850 C   0  0  0  0  0  0  0  0  0  0  0  0
   10.2190    7.9940   -7.9460 C   0  0  0  0  0  0  0  0  0  0  0  0
   10.9320    8.6430   -6.8000 C   0  0  0  0  0  0  0  0  0  0  0  0
   11.3310    9.9150   -6.9410 N   0  0  0  0  0  0  0  0  0  0  0  0
   11.9570   10.2510   -5.7540 O   0  0  0  0  0  0  0  0  0  0  0  0
   11.9310    9.1880   -4.9080 C   0  0  0  0  0  0  0  0  0  0  0  0
   12.4660    9.1540   -3.6250 C   0  0  0  0  0  0  0  0  0  0  0  0
   12.3190    7.9470   -2.9470 C   0  0  0  0  0  0  0  0  0  0  0  0
   12.8090    7.8350   -1.7050 F   0  0  0  0  0  0  0  0  0  0  0  0
   11.6800    6.8470   -3.5180 C   0  0  0  0  0  0  0  0  0  0  0  0
   11.1520    6.9170   -4.8160 C   0  0  0  0  0  0  0  0  0  0  0  0
   11.2860    8.1270   -5.5240 C   0  0  0  0  0  0  0  0  0  0  0  0
   10.4890    6.4940   -8.0510 C   0  0  0  0  0  0  0  0  0  0  0  0
    9.5810    5.8300   -9.0860 C   0  0  0  0  0  0  0  0  0  0  0  0
   12.4350    6.9400  -15.5380 C   0  0  0  0  0  0  0  0  0  0  0  0
   12.8780    6.7910  -16.9830 C   0  0  0  0  0  0  0  0  0  0  0  0
   11.6560    6.7180  -17.8770 C   0  0  0  0  0  0  0  0  0  0  0  0
   10.8430    5.4960  -17.5000 C   0  0  0  0  0  0  0  0  0  0  0  0
    7.9229    3.4899  -12.9977 H   0  0  0  0  0  0  0  0  0  0  0  0
    7.1853    4.0626  -14.5322 H   0  0  0  0  0  0  0  0  0  0  0  0
    8.2481    2.6145  -14.5322 H   0  0  0  0  0  0  0  0  0  0  0  0
    9.3877    3.9974  -11.6024 H   0  0  0  0  0  0  0  0  0  0  0  0
   10.7010    5.2222  -11.3545 H   0  0  0  0  0  0  0  0  0  0  0  0
    8.5607    6.7613  -12.2468 H   0  0  0  0  0  0  0  0  0  0  0  0
    7.7771    5.5193  -11.1899 H   0  0  0  0  0  0  0  0  0  0  0  0
    8.3660    7.3270   -9.8450 H   0  0  0  0  0  0  0  0  0  0  0  0
   11.2110    7.2452  -10.7149 H   0  0  0  0  0  0  0  0  0  0  0  0
    9.9932    8.3961  -11.3619 H   0  0  0  0  0  0  0  0  0  0  0  0
   11.5403    9.0396   -9.2896 H   0  0  0  0  0  0  0  0  0  0  0  0
    9.7847    9.5286   -9.3713 H   0  0  0  0  0  0  0  0  0  0  0  0
    9.1489    8.1132   -7.7210 H   0  0  0  0  0  0  0  0  0  0  0  0
   12.9711   10.0220   -3.1762 H   0  0  0  0  0  0  0  0  0  0  0  0
   11.5888    5.9131   -2.9439 H   0  0  0  0  0  0  0  0  0  0  0  0
   10.6472    6.0506   -5.2682 H   0  0  0  0  0  0  0  0  0  0  0  0
   11.5377    6.3398   -8.3449 H   0  0  0  0  0  0  0  0  0  0  0  0
   10.2845    6.0381   -7.0710 H   0  0  0  0  0  0  0  0  0  0  0  0
   10.1158    4.9803   -9.5355 H   0  0  0  0  0  0  0  0  0  0  0  0
    8.6666    5.4963   -8.5737 H   0  0  0  0  0  0  0  0  0  0  0  0
   12.0509    7.9616  -15.4007 H   0  0  0  0  0  0  0  0  0  0  0  0
   13.3174    6.7233  -14.9180 H   0  0  0  0  0  0  0  0  0  0  0  0
   13.4921    7.6573  -17.2702 H   0  0  0  0  0  0  0  0  0  0  0  0
   13.4708    5.8710  -17.0935 H   0  0  0  0  0  0  0  0  0  0  0  0
   11.0457    7.6232  -17.7425 H   0  0  0  0  0  0  0  0  0  0  0  0
   11.9683    6.6472  -18.9293 H   0  0  0  0  0  0  0  0  0  0  0  0
    9.8830    5.5399  -18.0352 H   0  0  0  0  0  0  0  0  0  0  0  0
   11.4413    4.6158  -17.7781 H   0  0  0  0  0  0  0  0  0  0  0  0
  1  2  1  0
  2  3  1  0
  3  4  2  0
  4  5  1  0
  5  6  1  0
  6  7  2  0
  6  8  1  0
  8  9  1  0
  9 10  1  0
 10 11  1  0
 11 12  1  0
 12 13  1  0
 13 14  1  0
 14 15  1  0
 15 16  2  0
 16 17  1  0
 17 18  1  0
 18 19  2  0
 19 20  1  0
 20 21  1  0
 20 22  2  0
 22 23  1  0
 23 24  2  0
 14 25  1  0
 25 26  1  0
  5 27  1  0
 27 28  1  0
 28 29  1  0
 29 30  1  0
  8  2  2  0
 26 11  1  0
 30  4  1  0
 24 15  1  0
 24 18  1  0
  1 31  1  0
  1 32  1  0
  1 33  1  0
  9 34  1  0
  9 35  1  0
 10 36  1  0
 10 37  1  0
 11 38  1  0
 12 39  1  0
 12 40  1  0
 13 41  1  0
 13 42  1  0
 14 43  1  0
 19 44  1  0
 22 45  1  0
 23 46  1  0
 25 47  1  0
 25 48  1  0
 26 49  1  0
 26 50  1  0
 27 51  1  0
 27 52  1  0
 28 53  1  0
 28 54  1  0
 29 55  1  0
 29 56  1  0
 30 57  1  0
 30 58  1  0
M  CHG  1  11   1
M  END
>  <meeko>  (3) 
{"is_sidechain": false}

>  <vina_kcal_mol>  (3) 
-11.743

>  <rmsd_cristal>  (3) 
2.62

$$$$
pose 4
     RDKit          3D

 58 62  0  0  0  0  0  0  0  0999 V2000
    6.5770    4.4040  -12.7220 C   0  0  0  0  0  0  0  0  0  0  0  0
    7.7560    3.7010  -13.3450 C   0  0  0  0  0  0  0  0  0  0  0  0
    7.3920    2.6760  -14.1740 N   0  0  0  0  0  0  0  0  0  0  0  0
    8.3060    1.9950  -14.7870 C   0  0  0  0  0  0  0  0  0  0  0  0
    9.6510    2.2130  -14.6190 N   0  0  0  0  0  0  0  0  0  0  0  0
   10.0840    3.2350  -13.8040 C   0  0  0  0  0  0  0  0  0  0  0  0
   11.2670    3.5180  -13.6020 O   0  0  0  0  0  0  0  0  0  0  0  0
    9.0360    4.0360  -13.1110 C   0  0  0  0  0  0  0  0  0  0  0  0
    9.5540    5.1730  -12.2720 C   0  0  0  0  0  0  0  0  0  0  0  0
    8.4490    5.7850  -11.4000 C   0  0  0  0  0  0  0  0  0  0  0  0
    9.0380    6.5730  -10.2360 N   0  0  0  0  0  0  0  0  0  0  0  0
   10.2750    7.3500  -10.6330 C   0  0  0  0  0  0  0  0  0  0  0  0
   10.6430    8.3260   -9.5200 C   0  0  0  0  0  0  0  0  0  0  0  0
   10.2770    7.8100   -8.1190 C   0  0  0  0  0  0  0  0  0  0  0  0
   11.0950    8.4490   -7.0410 C   0  0  0  0  0  0  0  0  0  0  0  0
   11.6900    9.6210   -7.3060 N   0  0  0  0  0  0  0  0  0  0  0  0
   12.3720    9.9710   -6.1550 O   0  0  0  0  0  0  0  0  0  0  0  0
   12.1860    9.0160   -5.2070 C   0  0  0  0  0  0  0  0  0  0  0  0
   12.7210    9.0260   -3.9230 C   0  0  0  0  0  0  0  0  0  0  0  0
   12.3890    7.9330   -3.1270 C   0  0  0  0  0  0  0  0  0  0  0  0
   12.8670    7.8700   -1.8780 F   0  0  0  0  0  0  0  0  0  0  0  0
   11.5780    6.8970   -3.5890 C   0  0  0  0  0  0  0  0  0  0  0  0
   11.0560    6.9190   -4.8910 C   0  0  0  0  0  0  0  0  0  0  0  0
   11.3740    8.0150   -5.7160 C   0  0  0  0  0  0  0  0  0  0  0  0
   10.3110    6.2830   -8.0770 C   0  0  0  0  0  0  0  0  0  0  0  0
    9.3000    5.6700   -9.0450 C   0  0  0  0  0  0  0  0  0  0  0  0
   10.6640    1.5240  -15.4150 C   0  0  0  0  0  0  0  0  0  0  0  0
   10.2010    0.2170  -16.0340 C   0  0  0  0  0  0  0  0  0  0  0  0
    8.8610    0.4310  -16.7120 C   0  0  0  0  0  0  0  0  0  0  0  0
    7.8440    0.8500  -15.6700 C   0  0  0  0  0  0  0  0  0  0  0  0
    6.6584    4.3555  -11.6261 H   0  0  0  0  0  0  0  0  0  0  0  0
    6.5661    5.4562  -13.0427 H   0  0  0  0  0  0  0  0  0  0  0  0
    5.6462    3.9133  -13.0427 H   0  0  0  0  0  0  0  0  0  0  0  0
   10.3562    4.7978  -11.6195 H   0  0  0  0  0  0  0  0  0  0  0  0
    9.9292    5.9550  -12.9486 H   0  0  0  0  0  0  0  0  0  0  0  0
    7.8374    6.4597  -12.0170 H   0  0  0  0  0  0  0  0  0  0  0  0
    7.8348    4.9685  -10.9924 H   0  0  0  0  0  0  0  0  0  0  0  0
    8.3210    7.2560   -9.9510 H   0  0  0  0  0  0  0  0  0  0  0  0
   11.1088    6.6519  -10.7987 H   0  0  0  0  0  0  0  0  0  0  0  0
   10.0746    7.9092  -11.5588 H   0  0  0  0  0  0  0  0  0  0  0  0
   11.7280    8.5038   -9.5550 H   0  0  0  0  0  0  0  0  0  0  0  0
   10.0684    9.2485   -9.6899 H   0  0  0  0  0  0  0  0  0  0  0  0
    9.2409    8.1139   -7.9090 H   0  0  0  0  0  0  0  0  0  0  0  0
   13.3631    9.8424   -3.5609 H   0  0  0  0  0  0  0  0  0  0  0  0
   11.3447    6.0521   -2.9244 H   0  0  0  0  0  0  0  0  0  0  0  0
   10.4160    6.1027   -5.2573 H   0  0  0  0  0  0  0  0  0  0  0  0
   11.3199    5.9409   -8.3509 H   0  0  0  0  0  0  0  0  0  0  0  0
   10.0497    5.9614   -7.0580 H   0  0  0  0  0  0  0  0  0  0  0  0
    9.6924    4.7083   -9.4073 H   0  0  0  0  0  0  0  0  0  0  0  0
    8.3512    5.5331   -8.5056 H   0  0  0  0  0  0  0  0  0  0  0  0
   10.9775    2.1962  -16.2273 H   0  0  0  0  0  0  0  0  0  0  0  0
   11.4822    1.2694  -14.7252 H   0  0  0  0  0  0  0  0  0  0  0  0
   10.9391   -0.1197  -16.7768 H   0  0  0  0  0  0  0  0  0  0  0  0
   10.0993   -0.5470  -15.2492 H   0  0  0  0  0  0  0  0  0  0  0  0
    8.9546    1.2187  -17.4741 H   0  0  0  0  0  0  0  0  0  0  0  0
    8.5355   -0.5016  -17.1960 H   0  0  0  0  0  0  0  0  0  0  0  0
    6.9249    1.1610  -16.1882 H   0  0  0  0  0  0  0  0  0  0  0  0
    7.6844   -0.0170  -15.0121 H   0  0  0  0  0  0  0  0  0  0  0  0
  1  2  1  0
  2  3  1  0
  3  4  2  0
  4  5  1  0
  5  6  1  0
  6  7  2  0
  6  8  1  0
  8  9  1  0
  9 10  1  0
 10 11  1  0
 11 12  1  0
 12 13  1  0
 13 14  1  0
 14 15  1  0
 15 16  2  0
 16 17  1  0
 17 18  1  0
 18 19  2  0
 19 20  1  0
 20 21  1  0
 20 22  2  0
 22 23  1  0
 23 24  2  0
 14 25  1  0
 25 26  1  0
  5 27  1  0
 27 28  1  0
 28 29  1  0
 29 30  1  0
  8  2  2  0
 26 11  1  0
 30  4  1  0
 24 15  1  0
 24 18  1  0
  1 31  1  0
  1 32  1  0
  1 33  1  0
  9 34  1  0
  9 35  1  0
 10 36  1  0
 10 37  1  0
 11 38  1  0
 12 39  1  0
 12 40  1  0
 13 41  1  0
 13 42  1  0
 14 43  1  0
 19 44  1  0
 22 45  1  0
 23 46  1  0
 25 47  1  0
 25 48  1  0
 26 49  1  0
 26 50  1  0
 27 51  1  0
 27 52  1  0
 28 53  1  0
 28 54  1  0
 29 55  1  0
 29 56  1  0
 30 57  1  0
 30 58  1  0
M  CHG  1  11   1
M  END
>  <meeko>  (4) 
{"is_sidechain": false}

>  <vina_kcal_mol>  (4) 
-11.501

>  <rmsd_cristal>  (4) 
0.96

$$$$
pose 5
     RDKit          3D

 58 62  0  0  0  0  0  0  0  0999 V2000
    5.6390    4.1510  -12.1670 C   0  0  0  0  0  0  0  0  0  0  0  0
    6.0080    2.9410  -12.9880 C   0  0  0  0  0  0  0  0  0  0  0  0
    4.9560    2.0900  -13.1890 N   0  0  0  0  0  0  0  0  0  0  0  0
    5.1290    1.0160  -13.8900 C   0  0  0  0  0  0  0  0  0  0  0  0
    6.3410    0.6460  -14.4190 N   0  0  0  0  0  0  0  0  0  0  0  0
    7.4380    1.4630  -14.2580 C   0  0  0  0  0  0  0  0  0  0  0  0
    8.5610    1.2260  -14.7070 O   0  0  0  0  0  0  0  0  0  0  0  0
    7.2400    2.7110  -13.4690 C   0  0  0  0  0  0  0  0  0  0  0  0
    8.4530    3.5960  -13.3630 C   0  0  0  0  0  0  0  0  0  0  0  0
    8.0900    5.0790  -13.5290 C   0  0  0  0  0  0  0  0  0  0  0  0
    8.8400    5.9460  -12.5240 N   0  0  0  0  0  0  0  0  0  0  0  0
   10.3340    5.9510  -12.7690 C   0  0  0  0  0  0  0  0  0  0  0  0
   10.9840    7.0430  -11.9260 C   0  0  0  0  0  0  0  0  0  0  0  0
   10.2580    7.2920  -10.5950 C   0  0  0  0  0  0  0  0  0  0  0  0
   11.1480    7.9100   -9.5630 C   0  0  0  0  0  0  0  0  0  0  0  0
   12.4620    7.9830   -9.8200 N   0  0  0  0  0  0  0  0  0  0  0  0
   13.0340    8.5830   -8.7120 O   0  0  0  0  0  0  0  0  0  0  0  0
   12.0700    8.8680   -7.7990 C   0  0  0  0  0  0  0  0  0  0  0  0
   12.2700    9.4720   -6.5620 C   0  0  0  0  0  0  0  0  0  0  0  0
   11.1230    9.6610   -5.7950 C   0  0  0  0  0  0  0  0  0  0  0  0
   11.2340   10.2360   -4.5910 F   0  0  0  0  0  0  0  0  0  0  0  0
    9.8600    9.2690   -6.2380 C   0  0  0  0  0  0  0  0  0  0  0  0
    9.6950    8.6630   -7.4920 C   0  0  0  0  0  0  0  0  0  0  0  0
   10.8380    8.4610   -8.2890 C   0  0  0  0  0  0  0  0  0  0  0  0
    9.5650    6.0200  -10.1090 C   0  0  0  0  0  0  0  0  0  0  0  0
    8.5050    5.5410  -11.1000 C   0  0  0  0  0  0  0  0  0  0  0  0
    6.4920   -0.4980  -15.3140 C   0  0  0  0  0  0  0  0  0  0  0  0
    5.3870   -1.5350  -15.2070 C   0  0  0  0  0  0  0  0  0  0  0  0
    4.0400   -0.8380  -15.2440 C   0  0  0  0  0  0  0  0  0  0  0  0
    3.9350    0.0940  -14.0550 C   0  0  0  0  0  0  0  0  0  0  0  0
    5.7140    3.9051  -11.0975 H   0  0  0  0  0  0  0  0  0  0  0  0
    6.3260    4.9772  -12.4024 H   0  0  0  0  0  0  0  0  0  0  0  0
    4.6079    4.4532  -12.4024 H   0  0  0  0  0  0  0  0  0  0  0  0
    8.9153    3.4505  -12.3755 H   0  0  0  0  0  0  0  0  0  0  0  0
    9.1497    3.3211  -14.1687 H   0  0  0  0  0  0  0  0  0  0  0  0
    8.3531    5.4010  -14.5474 H   0  0  0  0  0  0  0  0  0  0  0  0
    7.0106    5.1953  -13.3522 H   0  0  0  0  0  0  0  0  0  0  0  0
    8.5010    6.9100  -12.6570 H   0  0  0  0  0  0  0  0  0  0  0  0
   10.7545    4.9735  -12.4902 H   0  0  0  0  0  0  0  0  0  0  0  0
   10.5302    6.1445  -13.8339 H   0  0  0  0  0  0  0  0  0  0  0  0
   12.0208    6.7465  -11.7087 H   0  0  0  0  0  0  0  0  0  0  0  0
   10.9344    7.9767  -12.5054 H   0  0  0  0  0  0  0  0  0  0  0  0
    9.4705    8.0382  -10.7765 H   0  0  0  0  0  0  0  0  0  0  0  0
   13.2668    9.7796   -6.2131 H   0  0  0  0  0  0  0  0  0  0  0  0
    8.9827    9.4371   -5.5961 H   0  0  0  0  0  0  0  0  0  0  0  0
    8.6995    8.3539   -7.8434 H   0  0  0  0  0  0  0  0  0  0  0  0
   10.3189    5.2290   -9.9831 H   0  0  0  0  0  0  0  0  0  0  0  0
    9.0663    6.2441   -9.1545 H   0  0  0  0  0  0  0  0  0  0  0  0
    8.4389    4.4442  -11.0480 H   0  0  0  0  0  0  0  0  0  0  0  0
    7.5471    6.0084  -10.8282 H   0  0  0  0  0  0  0  0  0  0  0  0
    6.5126   -0.1241  -16.3483 H   0  0  0  0  0  0  0  0  0  0  0  0
    7.4235   -1.0035  -15.0193 H   0  0  0  0  0  0  0  0  0  0  0  0
    5.4601   -2.2382  -16.0497 H   0  0  0  0  0  0  0  0  0  0  0  0
    5.4903   -2.0873  -14.2613 H   0  0  0  0  0  0  0  0  0  0  0  0
    3.9494   -0.2596  -16.1753 H   0  0  0  0  0  0  0  0  0  0  0  0
    3.2335   -1.5850  -15.2034 H   0  0  0  0  0  0  0  0  0  0  0  0
    3.0339    0.7127  -14.1783 H   0  0  0  0  0  0  0  0  0  0  0  0
    3.8929   -0.5384  -13.1559 H   0  0  0  0  0  0  0  0  0  0  0  0
  1  2  1  0
  2  3  1  0
  3  4  2  0
  4  5  1  0
  5  6  1  0
  6  7  2  0
  6  8  1  0
  8  9  1  0
  9 10  1  0
 10 11  1  0
 11 12  1  0
 12 13  1  0
 13 14  1  0
 14 15  1  0
 15 16  2  0
 16 17  1  0
 17 18  1  0
 18 19  2  0
 19 20  1  0
 20 21  1  0
 20 22  2  0
 22 23  1  0
 23 24  2  0
 14 25  1  0
 25 26  1  0
  5 27  1  0
 27 28  1  0
 28 29  1  0
 29 30  1  0
  8  2  2  0
 26 11  1  0
 30  4  1  0
 24 15  1  0
 24 18  1  0
  1 31  1  0
  1 32  1  0
  1 33  1  0
  9 34  1  0
  9 35  1  0
 10 36  1  0
 10 37  1  0
 11 38  1  0
 12 39  1  0
 12 40  1  0
 13 41  1  0
 13 42  1  0
 14 43  1  0
 19 44  1  0
 22 45  1  0
 23 46  1  0
 25 47  1  0
 25 48  1  0
 26 49  1  0
 26 50  1  0
 27 51  1  0
 27 52  1  0
 28 53  1  0
 28 54  1  0
 29 55  1  0
 29 56  1  0
 30 57  1  0
 30 58  1  0
M  CHG  1  11   1
M  END
>  <meeko>  (5) 
{"is_sidechain": false}

>  <vina_kcal_mol>  (5) 
-11.466

>  <rmsd_cristal>  (5) 
3.71

$$$$
pose 6
     RDKit          3D

 58 62  0  0  0  0  0  0  0  0999 V2000
   12.1300    7.6270  -12.9040 C   0  0  0  0  0  0  0  0  0  0  0  0
   11.4130    7.3030  -11.6180 C   0  0  0  0  0  0  0  0  0  0  0  0
   12.0230    7.8350  -10.5160 N   0  0  0  0  0  0  0  0  0  0  0  0
   11.5050    7.6440   -9.3450 C   0  0  0  0  0  0  0  0  0  0  0  0
   10.3790    6.8870   -9.1310 N   0  0  0  0  0  0  0  0  0  0  0  0
    9.7130    6.3310  -10.2000 C   0  0  0  0  0  0  0  0  0  0  0  0
    8.6890    5.6490  -10.1110 O   0  0  0  0  0  0  0  0  0  0  0  0
   10.2940    6.5620  -11.5520 C   0  0  0  0  0  0  0  0  0  0  0  0
    9.5050    5.9780  -12.6920 C   0  0  0  0  0  0  0  0  0  0  0  0
   10.1000    4.6460  -13.1710 C   0  0  0  0  0  0  0  0  0  0  0  0
    9.0230    3.5730  -13.2930 N   0  0  0  0  0  0  0  0  0  0  0  0
    9.1430    2.7810  -14.5780 C   0  0  0  0  0  0  0  0  0  0  0  0
    8.2320    1.5590  -14.5080 C   0  0  0  0  0  0  0  0  0  0  0  0
    6.9630    1.7980  -13.6760 C   0  0  0  0  0  0  0  0  0  0  0  0
    5.8510    0.8660  -14.0450 C   0  0  0  0  0  0  0  0  0  0  0  0
    5.1110    0.3390  -13.0590 N   0  0  0  0  0  0  0  0  0  0  0  0
    4.1780   -0.4740  -13.6760 O   0  0  0  0  0  0  0  0  0  0  0  0
    4.3560   -0.4330  -15.0220 C   0  0  0  0  0  0  0  0  0  0  0  0
    3.6060   -1.1250  -15.9660 C   0  0  0  0  0  0  0  0  0  0  0  0
    3.9790   -0.9250  -17.2930 C   0  0  0  0  0  0  0  0  0  0  0  0
    3.3040   -1.5580  -18.2610 F   0  0  0  0  0  0  0  0  0  0  0  0
    5.0360   -0.0880  -17.6480 C   0  0  0  0  0  0  0  0  0  0  0  0
    5.7720    0.5950  -16.6690 C   0  0  0  0  0  0  0  0  0  0  0  0
    5.4150    0.4110  -15.3190 C   0  0  0  0  0  0  0  0  0  0  0  0
    6.5550    3.2700  -13.7180 C   0  0  0  0  0  0  0  0  0  0  0  0
    7.6390    4.1720  -13.1280 C   0  0  0  0  0  0  0  0  0  0  0  0
    9.7350    6.7900   -7.8240 C   0  0  0  0  0  0  0  0  0  0  0  0
   10.6380    7.1180   -6.6470 C   0  0  0  0  0  0  0  0  0  0  0  0
   11.3740    8.4140   -6.9270 C   0  0  0  0  0  0  0  0  0  0  0  0
   12.2410    8.2320   -8.1560 C   0  0  0  0  0  0  0  0  0  0  0  0
   13.1105    8.0701  -12.6755 H   0  0  0  0  0  0  0  0  0  0  0  0
   12.2712    6.7052  -13.4874 H   0  0  0  0  0  0  0  0  0  0  0  0
   11.5315    8.3421  -13.4874 H   0  0  0  0  0  0  0  0  0  0  0  0
    8.4706    5.8071  -12.3590 H   0  0  0  0  0  0  0  0  0  0  0  0
    9.5368    6.6890  -13.5307 H   0  0  0  0  0  0  0  0  0  0  0  0
   10.5701    4.7959  -14.1541 H   0  0  0  0  0  0  0  0  0  0  0  0
   10.8434    4.3110  -12.4326 H   0  0  0  0  0  0  0  0  0  0  0  0
    9.1700    2.9190  -12.5110 H   0  0  0  0  0  0  0  0  0  0  0  0
    8.8446    3.4128  -15.4276 H   0  0  0  0  0  0  0  0  0  0  0  0
   10.1849    2.4549  -14.7123 H   0  0  0  0  0  0  0  0  0  0  0  0
    7.9333    1.2864  -15.5310 H   0  0  0  0  0  0  0  0  0  0  0  0
    8.7995    0.7556  -14.0157 H   0  0  0  0  0  0  0  0  0  0  0  0
    7.1989    1.5601  -12.6283 H   0  0  0  0  0  0  0  0  0  0  0  0
    2.7735   -1.7864  -15.6838 H   0  0  0  0  0  0  0  0  0  0  0  0
    5.2959    0.0382  -18.7094 H   0  0  0  0  0  0  0  0  0  0  0  0
    6.6055    1.2565  -16.9478 H   0  0  0  0  0  0  0  0  0  0  0  0
    6.3783    3.5616  -14.7638 H   0  0  0  0  0  0  0  0  0  0  0  0
    5.6420    3.3910  -13.1165 H   0  0  0  0  0  0  0  0  0  0  0  0
    7.6092    5.1454  -13.6394 H   0  0  0  0  0  0  0  0  0  0  0  0
    7.4415    4.2841  -12.0517 H   0  0  0  0  0  0  0  0  0  0  0  0
    8.8843    7.4872   -7.8083 H   0  0  0  0  0  0  0  0  0  0  0  0
    9.4344    5.7389   -7.7023 H   0  0  0  0  0  0  0  0  0  0  0  0
   10.0300    7.2297   -5.7371 H   0  0  0  0  0  0  0  0  0  0  0  0
   11.3647    6.3051   -6.5018 H   0  0  0  0  0  0  0  0  0  0  0  0
   10.6471    9.2203   -7.1044 H   0  0  0  0  0  0  0  0  0  0  0  0
   12.0027    8.6788   -6.0641 H   0  0  0  0  0  0  0  0  0  0  0  0
   12.6401    9.2148   -8.4471 H   0  0  0  0  0  0  0  0  0  0  0  0
   13.0330    7.5182   -7.8855 H   0  0  0  0  0  0  0  0  0  0  0  0
  1  2  1  0
  2  3  1  0
  3  4  2  0
  4  5  1  0
  5  6  1  0
  6  7  2  0
  6  8  1  0
  8  9  1  0
  9 10  1  0
 10 11  1  0
 11 12  1  0
 12 13  1  0
 13 14  1  0
 14 15  1  0
 15 16  2  0
 16 17  1  0
 17 18  1  0
 18 19  2  0
 19 20  1  0
 20 21  1  0
 20 22  2  0
 22 23  1  0
 23 24  2  0
 14 25  1  0
 25 26  1  0
  5 27  1  0
 27 28  1  0
 28 29  1  0
 29 30  1  0
  8  2  2  0
 26 11  1  0
 30  4  1  0
 24 15  1  0
 24 18  1  0
  1 31  1  0
  1 32  1  0
  1 33  1  0
  9 34  1  0
  9 35  1  0
 10 36  1  0
 10 37  1  0
 11 38  1  0
 12 39  1  0
 12 40  1  0
 13 41  1  0
 13 42  1  0
 14 43  1  0
 19 44  1  0
 22 45  1  0
 23 46  1  0
 25 47  1  0
 25 48  1  0
 26 49  1  0
 26 50  1  0
 27 51  1  0
 27 52  1  0
 28 53  1  0
 28 54  1  0
 29 55  1  0
 29 56  1  0
 30 57  1  0
 30 58  1  0
M  CHG  1  11   1
M  END
>  <meeko>  (6) 
{"is_sidechain": false}

>  <vina_kcal_mol>  (6) 
-11.306

>  <rmsd_cristal>  (6) 
11.24

$$$$
pose 7
     RDKit          3D

 58 62  0  0  0  0  0  0  0  0999 V2000
    9.2590    5.1140   -9.0670 C   0  0  0  0  0  0  0  0  0  0  0  0
   10.0240    6.3140   -8.5700 C   0  0  0  0  0  0  0  0  0  0  0  0
   10.0920    6.3780   -7.2050 N   0  0  0  0  0  0  0  0  0  0  0  0
   10.7310    7.3520   -6.6430 C   0  0  0  0  0  0  0  0  0  0  0  0
   11.3240    8.3730   -7.3450 N   0  0  0  0  0  0  0  0  0  0  0  0
   11.2980    8.3630   -8.7220 C   0  0  0  0  0  0  0  0  0  0  0  0
   11.8120    9.2240   -9.4390 O   0  0  0  0  0  0  0  0  0  0  0  0
   10.5800    7.2340   -9.3760 C   0  0  0  0  0  0  0  0  0  0  0  0
   10.6220    7.2390  -10.8800 C   0  0  0  0  0  0  0  0  0  0  0  0
    9.2400    7.5240  -11.4860 C   0  0  0  0  0  0  0  0  0  0  0  0
    8.7840    6.3790  -12.3830 N   0  0  0  0  0  0  0  0  0  0  0  0
    7.5300    5.7070  -11.8680 C   0  0  0  0  0  0  0  0  0  0  0  0
    6.9740    4.7760  -12.9420 C   0  0  0  0  0  0  0  0  0  0  0  0
    8.0650    4.1570  -13.8280 C   0  0  0  0  0  0  0  0  0  0  0  0
    7.6240    2.8790  -14.4730 C   0  0  0  0  0  0  0  0  0  0  0  0
    8.3410    2.4080  -15.5030 N   0  0  0  0  0  0  0  0  0  0  0  0
    7.7150    1.2410  -15.9010 O   0  0  0  0  0  0  0  0  0  0  0  0
    6.6310    1.0140  -15.1130 C   0  0  0  0  0  0  0  0  0  0  0  0
    5.7580   -0.0630  -15.2180 C   0  0  0  0  0  0  0  0  0  0  0  0
    4.7150   -0.0810  -14.2960 C   0  0  0  0  0  0  0  0  0  0  0  0
    3.8310   -1.0860  -14.3340 F   0  0  0  0  0  0  0  0  0  0  0  0
    4.5560    0.9170  -13.3350 C   0  0  0  0  0  0  0  0  0  0  0  0
    5.4570    1.9900  -13.2580 C   0  0  0  0  0  0  0  0  0  0  0  0
    6.5220    2.0310  -14.1780 C   0  0  0  0  0  0  0  0  0  0  0  0
    9.3780    4.0220  -13.0590 C   0  0  0  0  0  0  0  0  0  0  0  0
    9.9070    5.3810  -12.6040 C   0  0  0  0  0  0  0  0  0  0  0  0
   12.1510    9.3910   -6.7040 C   0  0  0  0  0  0  0  0  0  0  0  0
   11.8950    9.5710   -5.2170 C   0  0  0  0  0  0  0  0  0  0  0  0
   11.8780    8.2120   -4.5440 C   0  0  0  0  0  0  0  0  0  0  0  0
   10.7470    7.3890   -5.1260 C   0  0  0  0  0  0  0  0  0  0  0  0
    8.8891    4.5338   -8.2088 H   0  0  0  0  0  0  0  0  0  0  0  0
    8.4075    5.4491   -9.6774 H   0  0  0  0  0  0  0  0  0  0  0  0
    9.9222    4.4835   -9.6774 H   0  0  0  0  0  0  0  0  0  0  0  0
   11.3250    8.0162  -11.2144 H   0  0  0  0  0  0  0  0  0  0  0  0
   10.9455    6.2432  -11.2173 H   0  0  0  0  0  0  0  0  0  0  0  0
    8.5114    7.6542  -10.6722 H   0  0  0  0  0  0  0  0  0  0  0  0
    9.3087    8.4373  -12.0952 H   0  0  0  0  0  0  0  0  0  0  0  0
    8.5600    6.7950  -13.2990 H   0  0  0  0  0  0  0  0  0  0  0  0
    7.7701    5.1245  -10.9663 H   0  0  0  0  0  0  0  0  0  0  0  0
    6.7790    6.4719  -11.6212 H   0  0  0  0  0  0  0  0  0  0  0  0
    6.4212    3.9631  -12.4484 H   0  0  0  0  0  0  0  0  0  0  0  0
    6.3254    5.3791  -13.5944 H   0  0  0  0  0  0  0  0  0  0  0  0
    8.2517    4.8487  -14.6627 H   0  0  0  0  0  0  0  0  0  0  0  0
    5.8830   -0.8480  -15.9784 H   0  0  0  0  0  0  0  0  0  0  0  0
    3.7143    0.8624  -12.6289 H   0  0  0  0  0  0  0  0  0  0  0  0
    5.3346    2.7774  -12.4997 H   0  0  0  0  0  0  0  0  0  0  0  0
    9.2100    3.3902  -12.1743 H   0  0  0  0  0  0  0  0  0  0  0  0
   10.1238    3.5700  -13.7294 H   0  0  0  0  0  0  0  0  0  0  0  0
   10.4581    5.2508  -11.6610 H   0  0  0  0  0  0  0  0  0  0  0  0
   10.5628    5.7744  -13.3947 H   0  0  0  0  0  0  0  0  0  0  0  0
   13.2061    9.1106   -6.8389 H   0  0  0  0  0  0  0  0  0  0  0  0
   11.8938   10.3476   -7.1823 H   0  0  0  0  0  0  0  0  0  0  0  0
   12.6930   10.1883   -4.7787 H   0  0  0  0  0  0  0  0  0  0  0  0
   10.9256   10.0689   -5.0673 H   0  0  0  0  0  0  0  0  0  0  0  0
   12.8356    7.7005   -4.7210 H   0  0  0  0  0  0  0  0  0  0  0  0
   11.7299    8.3348   -3.4610 H   0  0  0  0  0  0  0  0  0  0  0  0
   10.8427    6.3578   -4.7554 H   0  0  0  0  0  0  0  0  0  0  0  0
    9.8083    7.8665   -4.8083 H   0  0  0  0  0  0  0  0  0  0  0  0
  1  2  1  0
  2  3  1  0
  3  4  2  0
  4  5  1  0
  5  6  1  0
  6  7  2  0
  6  8  1  0
  8  9  1  0
  9 10  1  0
 10 11  1  0
 11 12  1  0
 12 13  1  0
 13 14  1  0
 14 15  1  0
 15 16  2  0
 16 17  1  0
 17 18  1  0
 18 19  2  0
 19 20  1  0
 20 21  1  0
 20 22  2  0
 22 23  1  0
 23 24  2  0
 14 25  1  0
 25 26  1  0
  5 27  1  0
 27 28  1  0
 28 29  1  0
 29 30  1  0
  8  2  2  0
 26 11  1  0
 30  4  1  0
 24 15  1  0
 24 18  1  0
  1 31  1  0
  1 32  1  0
  1 33  1  0
  9 34  1  0
  9 35  1  0
 10 36  1  0
 10 37  1  0
 11 38  1  0
 12 39  1  0
 12 40  1  0
 13 41  1  0
 13 42  1  0
 14 43  1  0
 19 44  1  0
 22 45  1  0
 23 46  1  0
 25 47  1  0
 25 48  1  0
 26 49  1  0
 26 50  1  0
 27 51  1  0
 27 52  1  0
 28 53  1  0
 28 54  1  0
 29 55  1  0
 29 56  1  0
 30 57  1  0
 30 58  1  0
M  CHG  1  11   1
M  END
>  <meeko>  (7) 
{"is_sidechain": false}

>  <vina_kcal_mol>  (7) 
-11.263

>  <rmsd_cristal>  (7) 
10.41

$$$$
pose 8
     RDKit          3D

 58 62  0  0  0  0  0  0  0  0999 V2000
   13.4260    8.4340  -11.7930 C   0  0  0  0  0  0  0  0  0  0  0  0
   12.3580    7.9810  -10.8300 C   0  0  0  0  0  0  0  0  0  0  0  0
   12.6260    8.3260   -9.5330 N   0  0  0  0  0  0  0  0  0  0  0  0
   11.7850    8.0100   -8.6020 C   0  0  0  0  0  0  0  0  0  0  0  0
   10.6340    7.2970   -8.8320 N   0  0  0  0  0  0  0  0  0  0  0  0
   10.3030    6.9260  -10.1170 C   0  0  0  0  0  0  0  0  0  0  0  0
    9.2870    6.2990  -10.4250 O   0  0  0  0  0  0  0  0  0  0  0  0
   11.2570    7.3040  -11.1960 C   0  0  0  0  0  0  0  0  0  0  0  0
   10.8290    6.9220  -12.5870 C   0  0  0  0  0  0  0  0  0  0  0  0
   11.6540    5.7490  -13.1340 C   0  0  0  0  0  0  0  0  0  0  0  0
   10.7780    4.5240  -13.3760 N   0  0  0  0  0  0  0  0  0  0  0  0
   11.2980    3.6570  -14.5020 C   0  0  0  0  0  0  0  0  0  0  0  0
   10.5550    2.3250  -14.5040 C   0  0  0  0  0  0  0  0  0  0  0  0
    9.1030    2.4430  -14.0140 C   0  0  0  0  0  0  0  0  0  0  0  0
    8.2350    1.3330  -14.5190 C   0  0  0  0  0  0  0  0  0  0  0  0
    8.7720    0.4440  -15.3660 N   0  0  0  0  0  0  0  0  0  0  0  0
    7.7610   -0.4510  -15.6700 O   0  0  0  0  0  0  0  0  0  0  0  0
    6.6290   -0.1010  -15.0070 C   0  0  0  0  0  0  0  0  0  0  0  0
    5.4090   -0.7660  -15.0690 C   0  0  0  0  0  0  0  0  0  0  0  0
    4.3870   -0.2160  -14.2990 C   0  0  0  0  0  0  0  0  0  0  0  0
    3.1810   -0.8000  -14.3070 F   0  0  0  0  0  0  0  0  0  0  0  0
    4.5750    0.9260  -13.5210 C   0  0  0  0  0  0  0  0  0  0  0  0
    5.8200    1.5720  -13.4840 C   0  0  0  0  0  0  0  0  0  0  0  0
    6.8710    1.0360  -14.2510 C   0  0  0  0  0  0  0  0  0  0  0  0
    8.5400    3.8320  -14.3130 C   0  0  0  0  0  0  0  0  0  0  0  0
    9.3320    4.9260  -13.5980 C   0  0  0  0  0  0  0  0  0  0  0  0
    9.6330    7.0630   -7.7950 C   0  0  0  0  0  0  0  0  0  0  0  0
   10.1570    7.1780   -6.3740 C   0  0  0  0  0  0  0  0  0  0  0  0
   10.9620    8.4560   -6.2390 C   0  0  0  0  0  0  0  0  0  0  0  0
   12.1490    8.3920   -7.1790 C   0  0  0  0  0  0  0  0  0  0  0  0
   14.2955    8.8028  -11.2292 H   0  0  0  0  0  0  0  0  0  0  0  0
   13.7315    7.5880  -12.4262 H   0  0  0  0  0  0  0  0  0  0  0  0
   13.0301    9.2417  -12.4262 H   0  0  0  0  0  0  0  0  0  0  0  0
    9.7680    6.6323  -12.5664 H   0  0  0  0  0  0  0  0  0  0  0  0
   10.9888    7.7891  -13.2447 H   0  0  0  0  0  0  0  0  0  0  0  0
   12.1200    6.0502  -14.0838 H   0  0  0  0  0  0  0  0  0  0  0  0
   12.4218    5.4869  -12.3912 H   0  0  0  0  0  0  0  0  0  0  0  0
   10.8110    3.9640  -12.5120 H   0  0  0  0  0  0  0  0  0  0  0  0
   11.1367    4.1681  -15.4626 H   0  0  0  0  0  0  0  0  0  0  0  0
   12.3735    3.4763  -14.3584 H   0  0  0  0  0  0  0  0  0  0  0  0
   10.5469    1.9304  -15.5307 H   0  0  0  0  0  0  0  0  0  0  0  0
   11.0820    1.6548  -13.8089 H   0  0  0  0  0  0  0  0  0  0  0  0
    9.1076    2.3268  -12.9202 H   0  0  0  0  0  0  0  0  0  0  0  0
    5.2613   -1.6656  -15.6846 H   0  0  0  0  0  0  0  0  0  0  0  0
    3.7377    1.3249  -12.9296 H   0  0  0  0  0  0  0  0  0  0  0  0
    5.9705    2.4734  -12.8718 H   0  0  0  0  0  0  0  0  0  0  0  0
    8.5851    4.0096  -15.3976 H   0  0  0  0  0  0  0  0  0  0  0  0
    7.5015    3.8673  -13.9520 H   0  0  0  0  0  0  0  0  0  0  0  0
    9.3068    5.8404  -14.2090 H   0  0  0  0  0  0  0  0  0  0  0  0
    8.8698    5.0939  -12.6140 H   0  0  0  0  0  0  0  0  0  0  0  0
    8.8264    7.7997   -7.9241 H   0  0  0  0  0  0  0  0  0  0  0  0
    9.2922    6.0245   -7.9189 H   0  0  0  0  0  0  0  0  0  0  0  0
    9.3112    7.2004   -5.6711 H   0  0  0  0  0  0  0  0  0  0  0  0
   10.7974    6.3131   -6.1461 H   0  0  0  0  0  0  0  0  0  0  0  0
   10.3312    9.3187   -6.4995 H   0  0  0  0  0  0  0  0  0  0  0  0
   11.3137    8.5664   -5.2026 H   0  0  0  0  0  0  0  0  0  0  0  0
   12.6299    9.3811   -7.1979 H   0  0  0  0  0  0  0  0  0  0  0  0
   12.8170    7.6057   -6.7976 H   0  0  0  0  0  0  0  0  0  0  0  0
  1  2  1  0
  2  3  1  0
  3  4  2  0
  4  5  1  0
  5  6  1  0
  6  7  2  0
  6  8  1  0
  8  9  1  0
  9 10  1  0
 10 11  1  0
 11 12  1  0
 12 13  1  0
 13 14  1  0
 14 15  1  0
 15 16  2  0
 16 17  1  0
 17 18  1  0
 18 19  2  0
 19 20  1  0
 20 21  1  0
 20 22  2  0
 22 23  1  0
 23 24  2  0
 14 25  1  0
 25 26  1  0
  5 27  1  0
 27 28  1  0
 28 29  1  0
 29 30  1  0
  8  2  2  0
 26 11  1  0
 30  4  1  0
 24 15  1  0
 24 18  1  0
  1 31  1  0
  1 32  1  0
  1 33  1  0
  9 34  1  0
  9 35  1  0
 10 36  1  0
 10 37  1  0
 11 38  1  0
 12 39  1  0
 12 40  1  0
 13 41  1  0
 13 42  1  0
 14 43  1  0
 19 44  1  0
 22 45  1  0
 23 46  1  0
 25 47  1  0
 25 48  1  0
 26 49  1  0
 26 50  1  0
 27 51  1  0
 27 52  1  0
 28 53  1  0
 28 54  1  0
 29 55  1  0
 29 56  1  0
 30 57  1  0
 30 58  1  0
M  CHG  1  11   1
M  END
>  <meeko>  (8) 
{"is_sidechain": false}

>  <vina_kcal_mol>  (8) 
-11.21

>  <rmsd_cristal>  (8) 
10.53

$$$$
pose 9
     RDKit          3D

 58 62  0  0  0  0  0  0  0  0999 V2000
    9.2180    5.0010   -9.2410 C   0  0  0  0  0  0  0  0  0  0  0  0
    9.9580    6.2180   -8.7470 C   0  0  0  0  0  0  0  0  0  0  0  0
   10.0650    6.2630   -7.3840 N   0  0  0  0  0  0  0  0  0  0  0  0
   10.6890    7.2490   -6.8240 C   0  0  0  0  0  0  0  0  0  0  0  0
   11.2260    8.3000   -7.5270 N   0  0  0  0  0  0  0  0  0  0  0  0
   11.1590    8.3100   -8.9020 C   0  0  0  0  0  0  0  0  0  0  0  0
   11.6220    9.2000   -9.6200 O   0  0  0  0  0  0  0  0  0  0  0  0
   10.4580    7.1680   -9.5530 C   0  0  0  0  0  0  0  0  0  0  0  0
   10.4540    7.1980  -11.0580 C   0  0  0  0  0  0  0  0  0  0  0  0
    9.0450    7.4440  -11.6170 C   0  0  0  0  0  0  0  0  0  0  0  0
    8.3410    6.1300  -11.9350 N   0  0  0  0  0  0  0  0  0  0  0  0
    8.9820    5.3980  -13.0950 C   0  0  0  0  0  0  0  0  0  0  0  0
    8.4210    3.9820  -13.1760 C   0  0  0  0  0  0  0  0  0  0  0  0
    6.9620    3.8830  -12.7040 C   0  0  0  0  0  0  0  0  0  0  0  0
    6.2530    2.6960  -13.2780 C   0  0  0  0  0  0  0  0  0  0  0  0
    5.2590    2.1450  -12.5660 N   0  0  0  0  0  0  0  0  0  0  0  0
    4.7960    1.0810  -13.3190 O   0  0  0  0  0  0  0  0  0  0  0  0
    5.5060    0.9960  -14.4740 C   0  0  0  0  0  0  0  0  0  0  0  0
    5.3240    0.0500  -15.4760 C   0  0  0  0  0  0  0  0  0  0  0  0
    6.1770    0.1630  -16.5700 C   0  0  0  0  0  0  0  0  0  0  0  0
    6.0630   -0.7130  -17.5770 F   0  0  0  0  0  0  0  0  0  0  0  0
    7.1500    1.1590  -16.6530 C   0  0  0  0  0  0  0  0  0  0  0  0
    7.3060    2.0980  -15.6230 C   0  0  0  0  0  0  0  0  0  0  0  0
    6.4550    2.0060  -14.5050 C   0  0  0  0  0  0  0  0  0  0  0  0
    6.2230    5.1990  -12.9410 C   0  0  0  0  0  0  0  0  0  0  0  0
    6.8560    6.3490  -12.1600 C   0  0  0  0  0  0  0  0  0  0  0  0
   12.0390    9.3350   -6.8940 C   0  0  0  0  0  0  0  0  0  0  0  0
   11.8220    9.4830   -5.3980 C   0  0  0  0  0  0  0  0  0  0  0  0
   11.8710    8.1140   -4.7470 C   0  0  0  0  0  0  0  0  0  0  0  0
   10.7500    7.2620   -5.3080 C   0  0  0  0  0  0  0  0  0  0  0  0
    8.8615    4.4146   -8.3813 H   0  0  0  0  0  0  0  0  0  0  0  0
    8.3589    5.3168   -9.8511 H   0  0  0  0  0  0  0  0  0  0  0  0
    9.8937    4.3836   -9.8511 H   0  0  0  0  0  0  0  0  0  0  0  0
   11.1192    8.0044  -11.4003 H   0  0  0  0  0  0  0  0  0  0  0  0
   10.8014    6.2197  -11.4216 H   0  0  0  0  0  0  0  0  0  0  0  0
    8.4544    7.9961  -10.8711 H   0  0  0  0  0  0  0  0  0  0  0  0
    9.1357    8.0245  -12.5469 H   0  0  0  0  0  0  0  0  0  0  0  0
    8.4400    5.5350  -11.1000 H   0  0  0  0  0  0  0  0  0  0  0  0
    8.7641    5.9327  -14.0313 H   0  0  0  0  0  0  0  0  0  0  0  0
   10.0705    5.3527  -12.9431 H   0  0  0  0  0  0  0  0  0  0  0  0
    8.4744    3.6437  -14.2213 H   0  0  0  0  0  0  0  0  0  0  0  0
    9.0253    3.3514  -12.5073 H   0  0  0  0  0  0  0  0  0  0  0  0
    6.9721    3.7122  -11.6174 H   0  0  0  0  0  0  0  0  0  0  0  0
    4.5570   -0.7356  -15.4088 H   0  0  0  0  0  0  0  0  0  0  0  0
    7.8028    1.2086  -17.5369 H   0  0  0  0  0  0  0  0  0  0  0  0
    8.0721    2.8847  -15.6868 H   0  0  0  0  0  0  0  0  0  0  0  0
    6.2538    5.4372  -14.0145 H   0  0  0  0  0  0  0  0  0  0  0  0
    5.1860    5.0780  -12.5945 H   0  0  0  0  0  0  0  0  0  0  0  0
    6.7157    7.2824  -12.7249 H   0  0  0  0  0  0  0  0  0  0  0  0
    6.3664    6.4036  -11.1765 H   0  0  0  0  0  0  0  0  0  0  0  0
   13.0981    9.0915   -7.0646 H   0  0  0  0  0  0  0  0  0  0  0  0
   11.7371   10.2900   -7.3487 H   0  0  0  0  0  0  0  0  0  0  0  0
   12.6116   10.1204   -4.9734 H   0  0  0  0  0  0  0  0  0  0  0  0
   10.8413    9.9450   -5.2116 H   0  0  0  0  0  0  0  0  0  0  0  0
   12.8392    7.6378   -4.9614 H   0  0  0  0  0  0  0  0  0  0  0  0
   11.7525    8.2152   -3.6581 H   0  0  0  0  0  0  0  0  0  0  0  0
   10.8915    6.2288   -4.9580 H   0  0  0  0  0  0  0  0  0  0  0  0
    9.8060    7.7017   -4.9537 H   0  0  0  0  0  0  0  0  0  0  0  0
  1  2  1  0
  2  3  1  0
  3  4  2  0
  4  5  1  0
  5  6  1  0
  6  7  2  0
  6  8  1  0
  8  9  1  0
  9 10  1  0
 10 11  1  0
 11 12  1  0
 12 13  1  0
 13 14  1  0
 14 15  1  0
 15 16  2  0
 16 17  1  0
 17 18  1  0
 18 19  2  0
 19 20  1  0
 20 21  1  0
 20 22  2  0
 22 23  1  0
 23 24  2  0
 14 25  1  0
 25 26  1  0
  5 27  1  0
 27 28  1  0
 28 29  1  0
 29 30  1  0
  8  2  2  0
 26 11  1  0
 30  4  1  0
 24 15  1  0
 24 18  1  0
  1 31  1  0
  1 32  1  0
  1 33  1  0
  9 34  1  0
  9 35  1  0
 10 36  1  0
 10 37  1  0
 11 38  1  0
 12 39  1  0
 12 40  1  0
 13 41  1  0
 13 42  1  0
 14 43  1  0
 19 44  1  0
 22 45  1  0
 23 46  1  0
 25 47  1  0
 25 48  1  0
 26 49  1  0
 26 50  1  0
 27 51  1  0
 27 52  1  0
 28 53  1  0
 28 54  1  0
 29 55  1  0
 29 56  1  0
 30 57  1  0
 30 58  1  0
M  CHG  1  11   1
M  END
>  <meeko>  (9) 
{"is_sidechain": false}

>  <vina_kcal_mol>  (9) 
-10.915

>  <rmsd_cristal>  (9) 
10.58

$$$$
