risperidona (6CM4/8NU)
     RDKit          3D

 58 62  0  0  0  0  0  0  0  0999 V2000
    5.7980    4.5200  -12.8980 C   0  0  0  0  0  0  0  0  0  0  0  0
    7.1440    4.0330  -13.3650 C   0  0  0  0  0  0  0  0  0  0  0  0
    8.2620    4.6000  -12.9090 C   0  0  0  0  0  0  0  0  0  0  0  0
    8.2060    5.7460  -11.8970 C   0  0  0  0  0  0  0  0  0  0  0  0
    8.7980    5.2360  -10.5560 C   0  0  0  0  0  0  0  0  0  0  0  0
    9.8570    7.3230   -9.9030 C   0  0  0  0  0  0  0  0  0  0  0  0
   10.0850    8.3470   -8.7770 C   0  0  0  0  0  0  0  0  0  0  0  0
   10.5980    7.5820   -7.5530 C   0  0  0  0  0  0  0  0  0  0  0  0
    9.5690    6.5280   -7.1200 C   0  0  0  0  0  0  0  0  0  0  0  0
    9.3630    5.5650   -8.2800 C   0  0  0  0  0  0  0  0  0  0  0  0
   10.9780    8.5130   -6.4340 C   0  0  0  0  0  0  0  0  0  0  0  0
   11.6040    9.3870   -4.5610 C   0  0  0  0  0  0  0  0  0  0  0  0
   11.3460    8.1840   -5.1480 C   0  0  0  0  0  0  0  0  0  0  0  0
   11.4800    6.9760   -4.4820 C   0  0  0  0  0  0  0  0  0  0  0  0
   11.8930    7.0420   -3.1520 C   0  0  0  0  0  0  0  0  0  0  0  0
   12.1580    8.2710   -2.5380 C   0  0  0  0  0  0  0  0  0  0  0  0
   12.0170    9.4710   -3.2390 C   0  0  0  0  0  0  0  0  0  0  0  0
    9.5440    4.0890  -13.3910 C   0  0  0  0  0  0  0  0  0  0  0  0
   10.8280    2.5500  -14.8120 C   0  0  0  0  0  0  0  0  0  0  0  0
   10.6590    1.6890  -16.0720 C   0  0  0  0  0  0  0  0  0  0  0  0
    9.6330    0.6130  -15.7710 C   0  0  0  0  0  0  0  0  0  0  0  0
    8.2570    1.2840  -15.6410 C   0  0  0  0  0  0  0  0  0  0  0  0
    8.3110    2.4650  -14.7030 C   0  0  0  0  0  0  0  0  0  0  0  0
   12.5550    8.2900   -1.2570 F   0  0  0  0  0  0  0  0  0  0  0  0
    8.8820    6.2720   -9.4860 N   0  0  0  0  0  0  0  0  0  0  0  0
   11.0470    9.8420   -6.5210 N   0  0  0  0  0  0  0  0  0  0  0  0
    9.5520    3.0330  -14.3060 N   0  0  0  0  0  0  0  0  0  0  0  0
    7.2090    2.9460  -14.2700 N   0  0  0  0  0  0  0  0  0  0  0  0
   11.4040   10.3280   -5.4310 O   0  0  0  0  0  0  0  0  0  0  0  0
   10.7140    4.6530  -12.9830 O   0  0  0  0  0  0  0  0  0  0  0  0
    5.7727    4.5292  -11.7983 H   0  0  0  0  0  0  0  0  0  0  0  0
    5.6245    5.5379  -13.2772 H   0  0  0  0  0  0  0  0  0  0  0  0
    5.0134    3.8488  -13.2772 H   0  0  0  0  0  0  0  0  0  0  0  0
    8.7969    6.5976  -12.2653 H   0  0  0  0  0  0  0  0  0  0  0  0
    7.1667    6.0762  -11.7531 H   0  0  0  0  0  0  0  0  0  0  0  0
    8.1644    4.4145  -10.1905 H   0  0  0  0  0  0  0  0  0  0  0  0
    9.8299    4.9197  -10.7685 H   0  0  0  0  0  0  0  0  0  0  0  0
    9.4656    7.8446  -10.7889 H   0  0  0  0  0  0  0  0  0  0  0  0
   10.8169    6.8371  -10.1323 H   0  0  0  0  0  0  0  0  0  0  0  0
   10.8298    9.0924   -9.0928 H   0  0  0  0  0  0  0  0  0  0  0  0
    9.1496    8.8746   -8.5390 H   0  0  0  0  0  0  0  0  0  0  0  0
   11.5211    7.0524   -7.8312 H   0  0  0  0  0  0  0  0  0  0  0  0
    9.9429    5.9802   -6.2424 H   0  0  0  0  0  0  0  0  0  0  0  0
    8.6179    7.0112   -6.8519 H   0  0  0  0  0  0  0  0  0  0  0  0
   10.3190    5.0723   -8.5108 H   0  0  0  0  0  0  0  0  0  0  0  0
    8.6046    4.8244   -7.9860 H   0  0  0  0  0  0  0  0  0  0  0  0
   11.2715    6.0158   -4.9766 H   0  0  0  0  0  0  0  0  0  0  0  0
   12.0125    6.1126   -2.5759 H   0  0  0  0  0  0  0  0  0  0  0  0
   12.2245   10.4409   -2.7634 H   0  0  0  0  0  0  0  0  0  0  0  0
   11.3136    1.9457  -14.0316 H   0  0  0  0  0  0  0  0  0  0  0  0
   11.4407    3.4241  -15.0777 H   0  0  0  0  0  0  0  0  0  0  0  0
   10.3101    2.3141  -16.9072 H   0  0  0  0  0  0  0  0  0  0  0  0
   11.6193    1.2328  -16.3544 H   0  0  0  0  0  0  0  0  0  0  0  0
    9.6131   -0.1218  -16.5894 H   0  0  0  0  0  0  0  0  0  0  0  0
    9.8914    0.0925  -14.8371 H   0  0  0  0  0  0  0  0  0  0  0  0
    7.9310    1.6288  -16.6334 H   0  0  0  0  0  0  0  0  0  0  0  0
    7.5483    0.5481  -15.2334 H   0  0  0  0  0  0  0  0  0  0  0  0
    7.9776    6.7318   -9.3086 H   0  0  0  0  0  0  0  0  0  0  0  0
  2  1  1  0
  3  2  2  0
  4  3  1  0
  5  4  1  0
  7  6  1  0
  8  7  1  0
  9  8  1  0
 10  9  1  0
 11  8  1  0
 13 11  1  0
 13 12  1  0
 14 13  2  0
 15 14  1  0
 16 15  2  0
 17 16  1  0
 17 12  2  0
 18  3  1  0
 20 19  1  0
 21 20  1  0
 22 21  1  0
 23 22  1  0
 24 16  1  0
 25  5  1  0
 25 10  1  0
 25  6  1  0
 26 11  2  0
 27 23  1  0
 27 19  1  0
 27 18  1  0
 28 23  2  0
 28  2  1  0
 29 26  1  0
 29 12  1  0
 30 18  2  0
  1 31  1  0
  1 32  1  0
  1 33  1  0
  4 34  1  0
  4 35  1  0
  5 36  1  0
  5 37  1  0
  6 38  1  0
  6 39  1  0
  7 40  1  0
  7 41  1  0
  8 42  1  0
  9 43  1  0
  9 44  1  0
 10 45  1  0
 10 46  1  0
 14 47  1  0
 15 48  1  0
 17 49  1  0
 19 50  1  0
 19 51  1  0
 20 52  1  0
 20 53  1  0
 21 54  1  0
 21 55  1  0
 22 56  1  0
 22 57  1  0
 25 58  1  0
M  CHG  1  25   1
M  END
$$$$
