pose 1
     RDKit          3D

 43 44  0  0  0  0  0  0  0  0999 V2000
  164.4350  196.2290  179.9330 C   0  0  0  0  0  0  0  0  0  0  0  0
  164.1980  196.1360  178.5290 O   0  0  0  0  0  0  0  0  0  0  0  0
  163.3440  195.1430  178.1810 C   0  0  0  0  0  0  0  0  0  0  0  0
  162.1750  195.0400  178.5180 O   0  0  0  0  0  0  0  0  0  0  0  0
  164.0250  194.1970  177.2730 C   0  0  0  0  0  0  0  0  0  0  0  0
  164.5140  193.0300  177.7480 C   0  0  0  0  0  0  0  0  0  0  0  0
  164.2950  192.5100  179.1470 C   0  0  0  0  0  0  0  0  0  0  0  0
  165.2900  192.2270  176.9240 N   0  0  0  0  0  0  0  0  0  0  0  0
  165.7810  192.6280  175.6890 C   0  0  0  0  0  0  0  0  0  0  0  0
  166.8540  191.7490  175.0960 C   0  0  0  0  0  0  0  0  0  0  0  0
  165.3260  193.7730  175.1310 C   0  0  0  0  0  0  0  0  0  0  0  0
  165.7730  194.3090  173.8250 C   0  0  0  0  0  0  0  0  0  0  0  0
  166.3430  195.3840  173.7110 O   0  0  0  0  0  0  0  0  0  0  0  0
  165.3700  193.5130  172.8040 O   0  0  0  0  0  0  0  0  0  0  0  0
  164.6760  194.2100  171.7700 C   0  0  0  0  0  0  0  0  0  0  0  0
  164.2880  194.6530  175.8410 C   0  0  0  0  0  0  0  0  0  0  0  0
  163.0000  194.7190  175.0070 C   0  0  0  0  0  0  0  0  0  0  0  0
  162.3660  193.5100  174.6400 C   0  0  0  0  0  0  0  0  0  0  0  0
  161.2170  193.5010  173.8440 C   0  0  0  0  0  0  0  0  0  0  0  0
  160.6670  194.6970  173.3910 C   0  0  0  0  0  0  0  0  0  0  0  0
  161.2630  195.9070  173.7380 C   0  0  0  0  0  0  0  0  0  0  0  0
  162.4160  195.9150  174.5430 C   0  0  0  0  0  0  0  0  0  0  0  0
  162.9500  197.2280  174.8920 N   0  0  0  0  0  0  0  0  0  0  0  0
  163.8250  197.7030  174.1550 O   0  0  0  0  0  0  0  0  0  0  0  0
  162.5350  197.7480  175.9380 O   0  0  0  0  0  0  0  0  0  0  0  0
  163.5460  195.8801  180.4788 H   0  0  0  0  0  0  0  0  0  0  0  0
  165.2990  195.6032  180.2013 H   0  0  0  0  0  0  0  0  0  0  0  0
  164.6428  197.2754  180.2013 H   0  0  0  0  0  0  0  0  0  0  0  0
  164.6151  193.2700  179.8750 H   0  0  0  0  0  0  0  0  0  0  0  0
  163.2274  192.2890  179.2931 H   0  0  0  0  0  0  0  0  0  0  0  0
  164.8828  191.5918  179.2931 H   0  0  0  0  0  0  0  0  0  0  0  0
  165.7450  191.4280  177.3670 H   0  0  0  0  0  0  0  0  0  0  0  0
  167.4302  191.2770  175.9055 H   0  0  0  0  0  0  0  0  0  0  0  0
  166.3880  190.9697  174.4751 H   0  0  0  0  0  0  0  0  0  0  0  0
  167.5263  192.3593  174.4751 H   0  0  0  0  0  0  0  0  0  0  0  0
  163.9675  194.9216  172.2191 H   0  0  0  0  0  0  0  0  0  0  0  0
  165.3992  194.7566  171.1469 H   0  0  0  0  0  0  0  0  0  0  0  0
  164.1263  193.4891  171.1469 H   0  0  0  0  0  0  0  0  0  0  0  0
  164.6986  195.6702  175.9232 H   0  0  0  0  0  0  0  0  0  0  0  0
  162.7862  192.5550  174.9886 H   0  0  0  0  0  0  0  0  0  0  0  0
  160.7452  192.5446  173.5743 H   0  0  0  0  0  0  0  0  0  0  0  0
  159.7651  194.6864  172.7614 H   0  0  0  0  0  0  0  0  0  0  0  0
  160.8325  196.8549  173.3829 H   0  0  0  0  0  0  0  0  0  0  0  0
  1  2  1  0
  2  3  1  0
  3  4  2  0
  3  5  1  0
  5  6  2  0
  6  7  1  0
  6  8  1  0
  8  9  1  0
  9 10  1  0
  9 11  2  0
 11 12  1  0
 12 13  2  0
 12 14  1  0
 14 15  1  0
 11 16  1  0
 16 17  1  0
 17 18  2  0
 18 19  1  0
 19 20  2  0
 20 21  1  0
 21 22  2  0
 22 23  1  0
 23 24  2  0
 23 25  1  0
 16  5  1  0
 22 17  1  0
  1 26  1  0
  1 27  1  0
  1 28  1  0
  7 29  1  0
  7 30  1  0
  7 31  1  0
  8 32  1  0
 10 33  1  0
 10 34  1  0
 10 35  1  0
 15 36  1  0
 15 37  1  0
 15 38  1  0
 16 39  1  0
 18 40  1  0
 19 41  1  0
 20 42  1  0
 21 43  1  0
M  CHG  2  23   1  25  -1
M  END
>  <meeko>  (1) 
{"is_sidechain": false}

>  <vina_kcal_mol>  (1) 
-7.165

>  <rmsd_cristal>  (1) 
1.33

$$$$
pose 2
     RDKit          3D

 43 44  0  0  0  0  0  0  0  0999 V2000
  167.7890  192.5640  174.1800 C   0  0  0  0  0  0  0  0  0  0  0  0
  166.4190  192.7510  174.5330 O   0  0  0  0  0  0  0  0  0  0  0  0
  165.5800  192.8070  173.4710 C   0  0  0  0  0  0  0  0  0  0  0  0
  165.2040  191.8640  172.7940 O   0  0  0  0  0  0  0  0  0  0  0  0
  165.1320  194.1990  173.2640 C   0  0  0  0  0  0  0  0  0  0  0  0
  165.6120  194.9220  172.2270 C   0  0  0  0  0  0  0  0  0  0  0  0
  166.4890  194.3750  171.1280 C   0  0  0  0  0  0  0  0  0  0  0  0
  165.3090  196.2740  172.1370 N   0  0  0  0  0  0  0  0  0  0  0  0
  164.7060  197.0030  173.1510 C   0  0  0  0  0  0  0  0  0  0  0  0
  164.7510  198.5030  172.9940 C   0  0  0  0  0  0  0  0  0  0  0  0
  164.1780  196.3560  174.2150 C   0  0  0  0  0  0  0  0  0  0  0  0
  163.5140  197.0180  175.3600 C   0  0  0  0  0  0  0  0  0  0  0  0
  162.3380  197.3490  175.3440 O   0  0  0  0  0  0  0  0  0  0  0  0
  164.4020  197.2960  176.3470 O   0  0  0  0  0  0  0  0  0  0  0  0
  164.2840  198.6190  176.8730 C   0  0  0  0  0  0  0  0  0  0  0  0
  164.2460  194.8270  174.3360 C   0  0  0  0  0  0  0  0  0  0  0  0
  162.8270  194.2380  174.3320 C   0  0  0  0  0  0  0  0  0  0  0  0
  162.1220  194.1710  173.1090 C   0  0  0  0  0  0  0  0  0  0  0  0
  160.8120  193.6890  173.0480 C   0  0  0  0  0  0  0  0  0  0  0  0
  160.1660  193.2610  174.2040 C   0  0  0  0  0  0  0  0  0  0  0  0
  160.8320  193.3070  175.4250 C   0  0  0  0  0  0  0  0  0  0  0  0
  162.1530  193.7880  175.4860 C   0  0  0  0  0  0  0  0  0  0  0  0
  162.7890  193.7640  176.8000 N   0  0  0  0  0  0  0  0  0  0  0  0
  162.4460  194.6300  177.6160 O   0  0  0  0  0  0  0  0  0  0  0  0
  163.6740  192.9170  176.9840 O   0  0  0  0  0  0  0  0  0  0  0  0
  168.3952  192.4812  175.0942 H   0  0  0  0  0  0  0  0  0  0  0  0
  167.8924  191.6434  173.5869 H   0  0  0  0  0  0  0  0  0  0  0  0
  168.1354  193.4232  173.5869 H   0  0  0  0  0  0  0  0  0  0  0  0
  167.3431  193.8423  171.5714 H   0  0  0  0  0  0  0  0  0  0  0  0
  165.9063  193.6799  170.5057 H   0  0  0  0  0  0  0  0  0  0  0  0
  166.8570  195.2040  170.5057 H   0  0  0  0  0  0  0  0  0  0  0  0
  165.8030  196.8020  171.4160 H   0  0  0  0  0  0  0  0  0  0  0  0
  164.7652  198.9754  173.9873 H   0  0  0  0  0  0  0  0  0  0  0  0
  165.6581  198.7866  172.4401 H   0  0  0  0  0  0  0  0  0  0  0  0
  163.8626  198.8405  172.4401 H   0  0  0  0  0  0  0  0  0  0  0  0
  164.2876  198.5782  177.9722 H   0  0  0  0  0  0  0  0  0  0  0  0
  165.1313  199.2285  176.5259 H   0  0  0  0  0  0  0  0  0  0  0  0
  163.3422  199.0689  176.5259 H   0  0  0  0  0  0  0  0  0  0  0  0
  164.7208  194.5805  175.2971 H   0  0  0  0  0  0  0  0  0  0  0  0
  162.6155  194.5057  172.1847 H   0  0  0  0  0  0  0  0  0  0  0  0
  160.2886  193.6476  172.0814 H   0  0  0  0  0  0  0  0  0  0  0  0
  159.1326  192.8877  174.1527 H   0  0  0  0  0  0  0  0  0  0  0  0
  160.3265  192.9678  176.3412 H   0  0  0  0  0  0  0  0  0  0  0  0
  1  2  1  0
  2  3  1  0
  3  4  2  0
  3  5  1  0
  5  6  2  0
  6  7  1  0
  6  8  1  0
  8  9  1  0
  9 10  1  0
  9 11  2  0
 11 12  1  0
 12 13  2  0
 12 14  1  0
 14 15  1  0
 11 16  1  0
 16 17  1  0
 17 18  2  0
 18 19  1  0
 19 20  2  0
 20 21  1  0
 21 22  2  0
 22 23  1  0
 23 24  2  0
 23 25  1  0
 16  5  1  0
 22 17  1  0
  1 26  1  0
  1 27  1  0
  1 28  1  0
  7 29  1  0
  7 30  1  0
  7 31  1  0
  8 32  1  0
 10 33  1  0
 10 34  1  0
 10 35  1  0
 15 36  1  0
 15 37  1  0
 15 38  1  0
 16 39  1  0
 18 40  1  0
 19 41  1  0
 20 42  1  0
 21 43  1  0
M  CHG  2  23   1  25  -1
M  END
>  <meeko>  (2) 
{"is_sidechain": false}

>  <vina_kcal_mol>  (2) 
-6.725

>  <rmsd_cristal>  (2) 
4.09

$$$$
pose 3
     RDKit          3D

 43 44  0  0  0  0  0  0  0  0999 V2000
  160.5620  195.8230  173.3320 C   0  0  0  0  0  0  0  0  0  0  0  0
  161.7630  195.2100  172.8660 O   0  0  0  0  0  0  0  0  0  0  0  0
  162.0110  193.9980  173.4180 C   0  0  0  0  0  0  0  0  0  0  0  0
  161.8990  192.9140  172.8660 O   0  0  0  0  0  0  0  0  0  0  0  0
  162.4950  194.1710  174.8030 C   0  0  0  0  0  0  0  0  0  0  0  0
  161.7560  193.7200  175.8420 C   0  0  0  0  0  0  0  0  0  0  0  0
  160.5010  192.8940  175.7140 C   0  0  0  0  0  0  0  0  0  0  0  0
  162.1400  194.0320  177.1390 N   0  0  0  0  0  0  0  0  0  0  0  0
  163.1290  194.9520  177.4560 C   0  0  0  0  0  0  0  0  0  0  0  0
  163.1800  195.3850  178.9000 C   0  0  0  0  0  0  0  0  0  0  0  0
  163.9290  195.4350  176.4780 C   0  0  0  0  0  0  0  0  0  0  0  0
  165.0120  196.4220  176.6860 C   0  0  0  0  0  0  0  0  0  0  0  0
  166.0180  196.1740  177.3360 O   0  0  0  0  0  0  0  0  0  0  0  0
  164.6820  197.6300  176.1660 O   0  0  0  0  0  0  0  0  0  0  0  0
  164.3490  198.6090  177.1500 C   0  0  0  0  0  0  0  0  0  0  0  0
  163.7560  195.0010  175.0160 C   0  0  0  0  0  0  0  0  0  0  0  0
  165.0190  194.2700  174.5350 C   0  0  0  0  0  0  0  0  0  0  0  0
  165.4760  193.1510  175.2660 C   0  0  0  0  0  0  0  0  0  0  0  0
  166.6430  192.4710  174.9060 C   0  0  0  0  0  0  0  0  0  0  0  0
  167.3890  192.8890  173.8080 C   0  0  0  0  0  0  0  0  0  0  0  0
  166.9660  193.9850  173.0610 C   0  0  0  0  0  0  0  0  0  0  0  0
  165.7880  194.6650  173.4200 C   0  0  0  0  0  0  0  0  0  0  0  0
  165.3960  195.7770  172.5590 N   0  0  0  0  0  0  0  0  0  0  0  0
  164.7440  195.5080  171.5410 O   0  0  0  0  0  0  0  0  0  0  0  0
  165.7960  196.9060  172.8760 O   0  0  0  0  0  0  0  0  0  0  0  0
  160.5551  195.8265  174.4320 H   0  0  0  0  0  0  0  0  0  0  0  0
  160.5108  196.8575  172.9617 H   0  0  0  0  0  0  0  0  0  0  0  0
  159.6942  195.2576  172.9617 H   0  0  0  0  0  0  0  0  0  0  0  0
  160.1223  192.6447  176.7162 H   0  0  0  0  0  0  0  0  0  0  0  0
  159.7388  193.4676  175.1662 H   0  0  0  0  0  0  0  0  0  0  0  0
  160.7264  191.9671  175.1662 H   0  0  0  0  0  0  0  0  0  0  0  0
  161.4810  193.7850  177.8790 H   0  0  0  0  0  0  0  0  0  0  0  0
  163.0763  194.5042  179.5508 H   0  0  0  0  0  0  0  0  0  0  0  0
  164.1424  195.8782  179.1011 H   0  0  0  0  0  0  0  0  0  0  0  0
  162.3585  196.0883  179.1011 H   0  0  0  0  0  0  0  0  0  0  0  0
  164.4937  198.1836  178.1541 H   0  0  0  0  0  0  0  0  0  0  0  0
  164.9986  199.4881  177.0271 H   0  0  0  0  0  0  0  0  0  0  0  0
  163.2980  198.9097  177.0271 H   0  0  0  0  0  0  0  0  0  0  0  0
  163.6241  195.9050  174.4033 H   0  0  0  0  0  0  0  0  0  0  0  0
  164.9006  192.8070  176.1381 H   0  0  0  0  0  0  0  0  0  0  0  0
  166.9733  191.6015  175.4933 H   0  0  0  0  0  0  0  0  0  0  0  0
  168.3100  192.3551  173.5312 H   0  0  0  0  0  0  0  0  0  0  0  0
  167.5518  194.3186  172.1918 H   0  0  0  0  0  0  0  0  0  0  0  0
  1  2  1  0
  2  3  1  0
  3  4  2  0
  3  5  1  0
  5  6  2  0
  6  7  1  0
  6  8  1  0
  8  9  1  0
  9 10  1  0
  9 11  2  0
 11 12  1  0
 12 13  2  0
 12 14  1  0
 14 15  1  0
 11 16  1  0
 16 17  1  0
 17 18  2  0
 18 19  1  0
 19 20  2  0
 20 21  1  0
 21 22  2  0
 22 23  1  0
 23 24  2  0
 23 25  1  0
 16  5  1  0
 22 17  1  0
  1 26  1  0
  1 27  1  0
  1 28  1  0
  7 29  1  0
  7 30  1  0
  7 31  1  0
  8 32  1  0
 10 33  1  0
 10 34  1  0
 10 35  1  0
 15 36  1  0
 15 37  1  0
 15 38  1  0
 16 39  1  0
 18 40  1  0
 19 41  1  0
 20 42  1  0
 21 43  1  0
M  CHG  2  23   1  25  -1
M  END
>  <meeko>  (3) 
{"is_sidechain": false}

>  <vina_kcal_mol>  (3) 
-6.344

>  <rmsd_cristal>  (3) 
4.09

$$$$
pose 4
     RDKit          3D

 43 44  0  0  0  0  0  0  0  0999 V2000
  162.6940  189.4820  170.0530 C   0  0  0  0  0  0  0  0  0  0  0  0
  162.9930  190.4850  171.0240 O   0  0  0  0  0  0  0  0  0  0  0  0
  164.0060  191.3100  170.6670 C   0  0  0  0  0  0  0  0  0  0  0  0
  164.1550  191.8490  169.5820 O   0  0  0  0  0  0  0  0  0  0  0  0
  164.9090  191.5150  171.8180 C   0  0  0  0  0  0  0  0  0  0  0  0
  165.9070  190.6350  172.0650 C   0  0  0  0  0  0  0  0  0  0  0  0
  166.2950  189.4950  171.1570 C   0  0  0  0  0  0  0  0  0  0  0  0
  166.6430  190.7480  173.2360 N   0  0  0  0  0  0  0  0  0  0  0  0
  166.3030  191.5850  174.2900 C   0  0  0  0  0  0  0  0  0  0  0  0
  167.0340  191.3350  175.5850 C   0  0  0  0  0  0  0  0  0  0  0  0
  165.3310  192.5100  174.1190 C   0  0  0  0  0  0  0  0  0  0  0  0
  164.8750  193.4550  175.1630 C   0  0  0  0  0  0  0  0  0  0  0  0
  163.7540  193.4150  175.6490 O   0  0  0  0  0  0  0  0  0  0  0  0
  165.8120  194.4050  175.4080 O   0  0  0  0  0  0  0  0  0  0  0  0
  165.2710  195.7150  175.5830 C   0  0  0  0  0  0  0  0  0  0  0  0
  164.5790  192.6450  172.7870 C   0  0  0  0  0  0  0  0  0  0  0  0
  164.8440  194.0290  172.1760 C   0  0  0  0  0  0  0  0  0  0  0  0
  166.0880  194.2680  171.5480 C   0  0  0  0  0  0  0  0  0  0  0  0
  166.4070  195.5190  171.0130 C   0  0  0  0  0  0  0  0  0  0  0  0
  165.4960  196.5680  171.0880 C   0  0  0  0  0  0  0  0  0  0  0  0
  164.2590  196.3670  171.6940 C   0  0  0  0  0  0  0  0  0  0  0  0
  163.9360  195.1060  172.2280 C   0  0  0  0  0  0  0  0  0  0  0  0
  162.6030  194.9720  172.8080 N   0  0  0  0  0  0  0  0  0  0  0  0
  161.9330  193.9840  172.4780 O   0  0  0  0  0  0  0  0  0  0  0  0
  162.2110  195.8900  173.5420 O   0  0  0  0  0  0  0  0  0  0  0  0
  162.4157  188.5484  170.5639 H   0  0  0  0  0  0  0  0  0  0  0  0
  161.8572  189.8190  169.4235 H   0  0  0  0  0  0  0  0  0  0  0  0
  163.5787  189.3058  169.4235 H   0  0  0  0  0  0  0  0  0  0  0  0
  166.5905  188.6268  171.7643 H   0  0  0  0  0  0  0  0  0  0  0  0
  165.4385  189.2240  170.5222 H   0  0  0  0  0  0  0  0  0  0  0  0
  167.1390  189.8028  170.5222 H   0  0  0  0  0  0  0  0  0  0  0  0
  167.2910  189.9850  173.4400 H   0  0  0  0  0  0  0  0  0  0  0  0
  166.3690  191.5624  176.4312 H   0  0  0  0  0  0  0  0  0  0  0  0
  167.3425  190.2803  175.6342 H   0  0  0  0  0  0  0  0  0  0  0  0
  167.9237  191.9799  175.6342 H   0  0  0  0  0  0  0  0  0  0  0  0
  165.1806  195.9339  176.6572 H   0  0  0  0  0  0  0  0  0  0  0  0
  165.9380  196.4529  175.1133 H   0  0  0  0  0  0  0  0  0  0  0  0
  164.2777  195.7672  175.1133 H   0  0  0  0  0  0  0  0  0  0  0  0
  163.5016  192.5567  172.9904 H   0  0  0  0  0  0  0  0  0  0  0  0
  166.8212  193.4509  171.4790 H   0  0  0  0  0  0  0  0  0  0  0  0
  167.3830  195.6751  170.5303 H   0  0  0  0  0  0  0  0  0  0  0  0
  165.7523  197.5526  170.6699 H   0  0  0  0  0  0  0  0  0  0  0  0
  163.5350  197.1929  171.7553 H   0  0  0  0  0  0  0  0  0  0  0  0
  1  2  1  0
  2  3  1  0
  3  4  2  0
  3  5  1  0
  5  6  2  0
  6  7  1  0
  6  8  1  0
  8  9  1  0
  9 10  1  0
  9 11  2  0
 11 12  1  0
 12 13  2  0
 12 14  1  0
 14 15  1  0
 11 16  1  0
 16 17  1  0
 17 18  2  0
 18 19  1  0
 19 20  2  0
 20 21  1  0
 21 22  2  0
 22 23  1  0
 23 24  2  0
 23 25  1  0
 16  5  1  0
 22 17  1  0
  1 26  1  0
  1 27  1  0
  1 28  1  0
  7 29  1  0
  7 30  1  0
  7 31  1  0
  8 32  1  0
 10 33  1  0
 10 34  1  0
 10 35  1  0
 15 36  1  0
 15 37  1  0
 15 38  1  0
 16 39  1  0
 18 40  1  0
 19 41  1  0
 20 42  1  0
 21 43  1  0
M  CHG  2  23   1  25  -1
M  END
>  <meeko>  (4) 
{"is_sidechain": false}

>  <vina_kcal_mol>  (4) 
-6.12

>  <rmsd_cristal>  (4) 
4.16

$$$$
pose 5
     RDKit          3D

 43 44  0  0  0  0  0  0  0  0999 V2000
  163.5390  192.6650  178.3140 C   0  0  0  0  0  0  0  0  0  0  0  0
  163.5310  193.2750  177.0230 O   0  0  0  0  0  0  0  0  0  0  0  0
  164.6030  194.0680  176.7840 C   0  0  0  0  0  0  0  0  0  0  0  0
  165.1500  194.8090  177.5850 O   0  0  0  0  0  0  0  0  0  0  0  0
  165.0630  193.8760  175.3930 C   0  0  0  0  0  0  0  0  0  0  0  0
  165.8540  192.8260  175.0780 C   0  0  0  0  0  0  0  0  0  0  0  0
  166.2100  191.7010  176.0180 C   0  0  0  0  0  0  0  0  0  0  0  0
  166.4100  192.7460  173.8080 N   0  0  0  0  0  0  0  0  0  0  0  0
  166.3810  193.7790  172.8820 C   0  0  0  0  0  0  0  0  0  0  0  0
  167.3030  193.6210  171.6980 C   0  0  0  0  0  0  0  0  0  0  0  0
  165.5960  194.8570  173.1100 C   0  0  0  0  0  0  0  0  0  0  0  0
  165.4820  196.0220  172.2040 C   0  0  0  0  0  0  0  0  0  0  0  0
  164.7150  196.0490  171.2530 O   0  0  0  0  0  0  0  0  0  0  0  0
  166.4030  196.9700  172.5070 O   0  0  0  0  0  0  0  0  0  0  0  0
  166.6000  197.9330  171.4710 C   0  0  0  0  0  0  0  0  0  0  0  0
  164.7470  194.9740  174.3830 C   0  0  0  0  0  0  0  0  0  0  0  0
  163.2560  195.0120  174.0150 C   0  0  0  0  0  0  0  0  0  0  0  0
  162.6880  193.8940  173.3650 C   0  0  0  0  0  0  0  0  0  0  0  0
  161.3490  193.8850  172.9640 C   0  0  0  0  0  0  0  0  0  0  0  0
  160.5380  194.9910  173.1980 C   0  0  0  0  0  0  0  0  0  0  0  0
  161.0630  196.1090  173.8420 C   0  0  0  0  0  0  0  0  0  0  0  0
  162.4090  196.1150  174.2510 C   0  0  0  0  0  0  0  0  0  0  0  0
  162.8660  197.3100  174.9540 N   0  0  0  0  0  0  0  0  0  0  0  0
  163.7520  197.9860  174.4150 O   0  0  0  0  0  0  0  0  0  0  0  0
  162.3770  197.5300  176.0710 O   0  0  0  0  0  0  0  0  0  0  0  0
  163.5288  193.4459  179.0886 H   0  0  0  0  0  0  0  0  0  0  0  0
  162.6491  192.0278  178.4240 H   0  0  0  0  0  0  0  0  0  0  0  0
  164.4453  192.0513  178.4240 H   0  0  0  0  0  0  0  0  0  0  0  0
  166.1016  192.0437  177.0576 H   0  0  0  0  0  0  0  0  0  0  0  0
  165.5377  190.8486  175.8409 H   0  0  0  0  0  0  0  0  0  0  0  0
  167.2503  191.3905  175.8409 H   0  0  0  0  0  0  0  0  0  0  0  0
  167.1040  192.0110  173.6620 H   0  0  0  0  0  0  0  0  0  0  0  0
  168.3291  193.4452  172.0532 H   0  0  0  0  0  0  0  0  0  0  0  0
  166.9743  192.7661  171.0888 H   0  0  0  0  0  0  0  0  0  0  0  0
  167.2777  194.5366  171.0888 H   0  0  0  0  0  0  0  0  0  0  0  0
  166.8014  198.9173  171.9188 H   0  0  0  0  0  0  0  0  0  0  0  0
  167.4551  197.6317  170.8481 H   0  0  0  0  0  0  0  0  0  0  0  0
  165.6953  197.9917  170.8481 H   0  0  0  0  0  0  0  0  0  0  0  0
  165.0046  195.9200  174.8817 H   0  0  0  0  0  0  0  0  0  0  0  0
  163.3135  193.0104  173.1700 H   0  0  0  0  0  0  0  0  0  0  0  0
  160.9344  192.9990  172.4609 H   0  0  0  0  0  0  0  0  0  0  0  0
  159.4863  194.9826  172.8757 H   0  0  0  0  0  0  0  0  0  0  0  0
  160.4261  196.9858  174.0305 H   0  0  0  0  0  0  0  0  0  0  0  0
  1  2  1  0
  2  3  1  0
  3  4  2  0
  3  5  1  0
  5  6  2  0
  6  7  1  0
  6  8  1  0
  8  9  1  0
  9 10  1  0
  9 11  2  0
 11 12  1  0
 12 13  2  0
 12 14  1  0
 14 15  1  0
 11 16  1  0
 16 17  1  0
 17 18  2  0
 18 19  1  0
 19 20  2  0
 20 21  1  0
 21 22  2  0
 22 23  1  0
 23 24  2  0
 23 25  1  0
 16  5  1  0
 22 17  1  0
  1 26  1  0
  1 27  1  0
  1 28  1  0
  7 29  1  0
  7 30  1  0
  7 31  1  0
  8 32  1  0
 10 33  1  0
 10 34  1  0
 10 35  1  0
 15 36  1  0
 15 37  1  0
 15 38  1  0
 16 39  1  0
 18 40  1  0
 19 41  1  0
 20 42  1  0
 21 43  1  0
M  CHG  2  23   1  25  -1
M  END
>  <meeko>  (5) 
{"is_sidechain": false}

>  <vina_kcal_mol>  (5) 
-6.081

>  <rmsd_cristal>  (5) 
2.93

$$$$
pose 6
     RDKit          3D

 43 44  0  0  0  0  0  0  0  0999 V2000
  162.7790  196.6380  179.7470 C   0  0  0  0  0  0  0  0  0  0  0  0
  163.6320  195.6540  179.1630 O   0  0  0  0  0  0  0  0  0  0  0  0
  164.5340  196.1590  178.2880 C   0  0  0  0  0  0  0  0  0  0  0  0
  165.6590  196.5560  178.5540 O   0  0  0  0  0  0  0  0  0  0  0  0
  163.9770  196.1230  176.9210 C   0  0  0  0  0  0  0  0  0  0  0  0
  163.7490  197.2740  176.2480 C   0  0  0  0  0  0  0  0  0  0  0  0
  164.1620  198.6450  176.7210 C   0  0  0  0  0  0  0  0  0  0  0  0
  163.0770  197.2340  175.0340 N   0  0  0  0  0  0  0  0  0  0  0  0
  162.4310  196.1090  174.5400 C   0  0  0  0  0  0  0  0  0  0  0  0
  161.4990  196.3480  173.3780 C   0  0  0  0  0  0  0  0  0  0  0  0
  162.6240  194.9130  175.1410 C   0  0  0  0  0  0  0  0  0  0  0  0
  161.9900  193.6440  174.7150 C   0  0  0  0  0  0  0  0  0  0  0  0
  162.5240  192.8660  173.9390 O   0  0  0  0  0  0  0  0  0  0  0  0
  160.7310  193.5360  175.2050 O   0  0  0  0  0  0  0  0  0  0  0  0
  160.6220  192.6570  176.3250 C   0  0  0  0  0  0  0  0  0  0  0  0
  163.5290  194.7720  176.3730 C   0  0  0  0  0  0  0  0  0  0  0  0
  164.7180  193.8560  176.0450 C   0  0  0  0  0  0  0  0  0  0  0  0
  165.4850  194.1260  174.8890 C   0  0  0  0  0  0  0  0  0  0  0  0
  166.5510  193.3040  174.5120 C   0  0  0  0  0  0  0  0  0  0  0  0
  166.8820  192.1890  175.2760 C   0  0  0  0  0  0  0  0  0  0  0  0
  166.1520  191.8960  176.4250 C   0  0  0  0  0  0  0  0  0  0  0  0
  165.0830  192.7270  176.8070 C   0  0  0  0  0  0  0  0  0  0  0  0
  164.3980  192.3700  178.0460 N   0  0  0  0  0  0  0  0  0  0  0  0
  164.9580  192.6590  179.1120 O   0  0  0  0  0  0  0  0  0  0  0  0
  163.3320  191.7460  177.9430 O   0  0  0  0  0  0  0  0  0  0  0  0
  162.8378  196.5701  180.8433 H   0  0  0  0  0  0  0  0  0  0  0  0
  163.0995  197.6394  179.4239 H   0  0  0  0  0  0  0  0  0  0  0  0
  161.7422  196.4628  179.4239 H   0  0  0  0  0  0  0  0  0  0  0  0
  164.1686  198.6669  177.8208 H   0  0  0  0  0  0  0  0  0  0  0  0
  165.1693  198.8750  176.3436 H   0  0  0  0  0  0  0  0  0  0  0  0
  163.4494  199.3932  176.3436 H   0  0  0  0  0  0  0  0  0  0  0  0
  162.8120  198.1350  174.6330 H   0  0  0  0  0  0  0  0  0  0  0  0
  160.4987  196.6045  173.7570 H   0  0  0  0  0  0  0  0  0  0  0  0
  161.8825  197.1769  172.7649 H   0  0  0  0  0  0  0  0  0  0  0  0
  161.4362  195.4369  172.7649 H   0  0  0  0  0  0  0  0  0  0  0  0
  160.6941  193.2386  177.2559 H   0  0  0  0  0  0  0  0  0  0  0  0
  159.6526  192.1382  176.2909 H   0  0  0  0  0  0  0  0  0  0  0  0
  161.4353  191.9171  176.2909 H   0  0  0  0  0  0  0  0  0  0  0  0
  162.9429  194.3045  177.1780 H   0  0  0  0  0  0  0  0  0  0  0  0
  165.2376  195.0026  174.2722 H   0  0  0  0  0  0  0  0  0  0  0  0
  167.1308  193.5396  173.6074 H   0  0  0  0  0  0  0  0  0  0  0  0
  167.7178  191.5411  174.9732 H   0  0  0  0  0  0  0  0  0  0  0  0
  166.4107  191.0164  177.0328 H   0  0  0  0  0  0  0  0  0  0  0  0
  1  2  1  0
  2  3  1  0
  3  4  2  0
  3  5  1  0
  5  6  2  0
  6  7  1  0
  6  8  1  0
  8  9  1  0
  9 10  1  0
  9 11  2  0
 11 12  1  0
 12 13  2  0
 12 14  1  0
 14 15  1  0
 11 16  1  0
 16 17  1  0
 17 18  2  0
 18 19  1  0
 19 20  2  0
 20 21  1  0
 21 22  2  0
 22 23  1  0
 23 24  2  0
 23 25  1  0
 16  5  1  0
 22 17  1  0
  1 26  1  0
  1 27  1  0
  1 28  1  0
  7 29  1  0
  7 30  1  0
  7 31  1  0
  8 32  1  0
 10 33  1  0
 10 34  1  0
 10 35  1  0
 15 36  1  0
 15 37  1  0
 15 38  1  0
 16 39  1  0
 18 40  1  0
 19 41  1  0
 20 42  1  0
 21 43  1  0
M  CHG  2  23   1  25  -1
M  END
>  <meeko>  (6) 
{"is_sidechain": false}

>  <vina_kcal_mol>  (6) 
-5.95

>  <rmsd_cristal>  (6) 
4.94

$$$$
pose 7
     RDKit          3D

 43 44  0  0  0  0  0  0  0  0999 V2000
  167.1070  197.9880  171.1870 C   0  0  0  0  0  0  0  0  0  0  0  0
  166.4370  197.0590  172.0390 O   0  0  0  0  0  0  0  0  0  0  0  0
  165.0940  197.2290  172.0880 C   0  0  0  0  0  0  0  0  0  0  0  0
  164.3270  197.2290  171.1370 O   0  0  0  0  0  0  0  0  0  0  0  0
  164.6620  197.3730  173.4930 C   0  0  0  0  0  0  0  0  0  0  0  0
  164.7440  198.5730  174.1110 C   0  0  0  0  0  0  0  0  0  0  0  0
  165.1130  199.8680  173.4320 C   0  0  0  0  0  0  0  0  0  0  0  0
  164.4890  198.6600  175.4730 N   0  0  0  0  0  0  0  0  0  0  0  0
  164.3490  197.5610  176.3080 C   0  0  0  0  0  0  0  0  0  0  0  0
  164.3970  197.8530  177.7870 C   0  0  0  0  0  0  0  0  0  0  0  0
  164.2360  196.3250  175.7700 C   0  0  0  0  0  0  0  0  0  0  0  0
  164.0870  195.0760  176.5510 C   0  0  0  0  0  0  0  0  0  0  0  0
  164.9780  194.2440  176.6460 O   0  0  0  0  0  0  0  0  0  0  0  0
  162.8260  194.9460  177.0310 O   0  0  0  0  0  0  0  0  0  0  0  0
  162.7390  194.1470  178.2110 C   0  0  0  0  0  0  0  0  0  0  0  0
  164.2780  196.1060  174.2510 C   0  0  0  0  0  0  0  0  0  0  0  0
  162.9400  195.5260  173.7700 C   0  0  0  0  0  0  0  0  0  0  0  0
  161.7610  196.2790  173.9700 C   0  0  0  0  0  0  0  0  0  0  0  0
  160.5070  195.7870  173.5960 C   0  0  0  0  0  0  0  0  0  0  0  0
  160.3930  194.5290  173.0120 C   0  0  0  0  0  0  0  0  0  0  0  0
  161.5340  193.7610  172.7940 C   0  0  0  0  0  0  0  0  0  0  0  0
  162.7960  194.2590  173.1660 C   0  0  0  0  0  0  0  0  0  0  0  0
  163.9420  193.4060  172.8640 N   0  0  0  0  0  0  0  0  0  0  0  0
  164.3250  192.6310  173.7500 O   0  0  0  0  0  0  0  0  0  0  0  0
  164.4890  193.5640  171.7640 O   0  0  0  0  0  0  0  0  0  0  0  0
  167.6412  198.7287  171.8003 H   0  0  0  0  0  0  0  0  0  0  0  0
  167.8265  197.4502  170.5521 H   0  0  0  0  0  0  0  0  0  0  0  0
  166.3696  198.5010  170.5521 H   0  0  0  0  0  0  0  0  0  0  0  0
  165.3307  200.6319  174.1929 H   0  0  0  0  0  0  0  0  0  0  0  0
  166.0025  199.7122  172.8039 H   0  0  0  0  0  0  0  0  0  0  0  0
  164.2750  200.2045  172.8039 H   0  0  0  0  0  0  0  0  0  0  0  0
  164.6950  199.5560  175.9160 H   0  0  0  0  0  0  0  0  0  0  0  0
  164.2437  196.9205  178.3500 H   0  0  0  0  0  0  0  0  0  0  0  0
  165.3774  198.2800  178.0448 H   0  0  0  0  0  0  0  0  0  0  0  0
  163.6049  198.5714  178.0448 H   0  0  0  0  0  0  0  0  0  0  0  0
  162.8094  194.7939  179.0979 H   0  0  0  0  0  0  0  0  0  0  0  0
  161.7774  193.6130  178.2221 H   0  0  0  0  0  0  0  0  0  0  0  0
  163.5631  193.4185  178.2221 H   0  0  0  0  0  0  0  0  0  0  0  0
  165.0711  195.3761  174.0312 H   0  0  0  0  0  0  0  0  0  0  0  0
  161.8316  197.2754  174.4307 H   0  0  0  0  0  0  0  0  0  0  0  0
  159.6069  196.3966  173.7640 H   0  0  0  0  0  0  0  0  0  0  0  0
  159.4044  194.1424  172.7234 H   0  0  0  0  0  0  0  0  0  0  0  0
  161.4486  192.7665  172.3317 H   0  0  0  0  0  0  0  0  0  0  0  0
  1  2  1  0
  2  3  1  0
  3  4  2  0
  3  5  1  0
  5  6  2  0
  6  7  1  0
  6  8  1  0
  8  9  1  0
  9 10  1  0
  9 11  2  0
 11 12  1  0
 12 13  2  0
 12 14  1  0
 14 15  1  0
 11 16  1  0
 16 17  1  0
 17 18  2  0
 18 19  1  0
 19 20  2  0
 20 21  1  0
 21 22  2  0
 22 23  1  0
 23 24  2  0
 23 25  1  0
 16  5  1  0
 22 17  1  0
  1 26  1  0
  1 27  1  0
  1 28  1  0
  7 29  1  0
  7 30  1  0
  7 31  1  0
  8 32  1  0
 10 33  1  0
 10 34  1  0
 10 35  1  0
 15 36  1  0
 15 37  1  0
 15 38  1  0
 16 39  1  0
 18 40  1  0
 19 41  1  0
 20 42  1  0
 21 43  1  0
M  CHG  2  23   1  25  -1
M  END
>  <meeko>  (7) 
{"is_sidechain": false}

>  <vina_kcal_mol>  (7) 
-5.939

>  <rmsd_cristal>  (7) 
4.66

$$$$
pose 8
     RDKit          3D

 43 44  0  0  0  0  0  0  0  0999 V2000
  164.7150  196.0480  179.6110 C   0  0  0  0  0  0  0  0  0  0  0  0
  164.6860  197.0990  178.6460 O   0  0  0  0  0  0  0  0  0  0  0  0
  163.5180  197.1880  177.9660 C   0  0  0  0  0  0  0  0  0  0  0  0
  162.4170  197.4210  178.4410 O   0  0  0  0  0  0  0  0  0  0  0  0
  163.7680  197.0050  176.5220 C   0  0  0  0  0  0  0  0  0  0  0  0
  164.3490  197.9910  175.8010 C   0  0  0  0  0  0  0  0  0  0  0  0
  164.9240  199.2580  176.3830 C   0  0  0  0  0  0  0  0  0  0  0  0
  164.4310  197.8720  174.4210 N   0  0  0  0  0  0  0  0  0  0  0  0
  163.7740  196.8960  173.6850 C   0  0  0  0  0  0  0  0  0  0  0  0
  163.7270  197.1210  172.1950 C   0  0  0  0  0  0  0  0  0  0  0  0
  163.1860  195.8600  174.3270 C   0  0  0  0  0  0  0  0  0  0  0  0
  162.4530  194.7620  173.6590 C   0  0  0  0  0  0  0  0  0  0  0  0
  163.0160  193.8560  173.0620 O   0  0  0  0  0  0  0  0  0  0  0  0
  161.1130  194.9660  173.7080 O   0  0  0  0  0  0  0  0  0  0  0  0
  160.3430  193.7750  173.5390 C   0  0  0  0  0  0  0  0  0  0  0  0
  163.2120  195.7490  175.8580 C   0  0  0  0  0  0  0  0  0  0  0  0
  163.9770  194.4850  176.2770 C   0  0  0  0  0  0  0  0  0  0  0  0
  165.2860  194.2870  175.7820 C   0  0  0  0  0  0  0  0  0  0  0  0
  166.0170  193.1360  176.0890 C   0  0  0  0  0  0  0  0  0  0  0  0
  165.4640  192.1480  176.8980 C   0  0  0  0  0  0  0  0  0  0  0  0
  164.1790  192.3120  177.4090 C   0  0  0  0  0  0  0  0  0  0  0  0
  163.4460  193.4730  177.1040 C   0  0  0  0  0  0  0  0  0  0  0  0
  162.1240  193.5810  177.7130 N   0  0  0  0  0  0  0  0  0  0  0  0
  161.1530  193.2010  177.0440 O   0  0  0  0  0  0  0  0  0  0  0  0
  162.0590  194.1050  178.8350 O   0  0  0  0  0  0  0  0  0  0  0  0
  164.7031  196.4790  180.6230 H   0  0  0  0  0  0  0  0  0  0  0  0
  163.8343  195.4027  179.4769 H   0  0  0  0  0  0  0  0  0  0  0  0
  165.6299  195.4522  179.4769 H   0  0  0  0  0  0  0  0  0  0  0  0
  164.8984  199.2016  177.4813 H   0  0  0  0  0  0  0  0  0  0  0  0
  165.9643  199.3771  176.0461 H   0  0  0  0  0  0  0  0  0  0  0  0
  164.3286  200.1194  176.0461 H   0  0  0  0  0  0  0  0  0  0  0  0
  164.7540  198.6970  173.9130 H   0  0  0  0  0  0  0  0  0  0  0  0
  163.5060  198.1790  171.9908 H   0  0  0  0  0  0  0  0  0  0  0  0
  164.6995  196.8577  171.7536 H   0  0  0  0  0  0  0  0  0  0  0  0
  162.9412  196.4904  171.7536 H   0  0  0  0  0  0  0  0  0  0  0  0
  160.0787  193.3662  174.5254 H   0  0  0  0  0  0  0  0  0  0  0  0
  159.4244  194.0084  172.9807 H   0  0  0  0  0  0  0  0  0  0  0  0
  160.9329  193.0331  172.9807 H   0  0  0  0  0  0  0  0  0  0  0  0
  162.1746  195.6600  176.2128 H   0  0  0  0  0  0  0  0  0  0  0  0
  165.7399  195.0566  175.1403 H   0  0  0  0  0  0  0  0  0  0  0  0
  167.0341  193.0106  175.6893 H   0  0  0  0  0  0  0  0  0  0  0  0
  166.0398  191.2407  177.1330 H   0  0  0  0  0  0  0  0  0  0  0  0
  163.7379  191.5347  178.0502 H   0  0  0  0  0  0  0  0  0  0  0  0
  1  2  1  0
  2  3  1  0
  3  4  2  0
  3  5  1  0
  5  6  2  0
  6  7  1  0
  6  8  1  0
  8  9  1  0
  9 10  1  0
  9 11  2  0
 11 12  1  0
 12 13  2  0
 12 14  1  0
 14 15  1  0
 11 16  1  0
 16 17  1  0
 17 18  2  0
 18 19  1  0
 19 20  2  0
 20 21  1  0
 21 22  2  0
 22 23  1  0
 23 24  2  0
 23 25  1  0
 16  5  1  0
 22 17  1  0
  1 26  1  0
  1 27  1  0
  1 28  1  0
  7 29  1  0
  7 30  1  0
  7 31  1  0
  8 32  1  0
 10 33  1  0
 10 34  1  0
 10 35  1  0
 15 36  1  0
 15 37  1  0
 15 38  1  0
 16 39  1  0
 18 40  1  0
 19 41  1  0
 20 42  1  0
 21 43  1  0
M  CHG  2  23   1  25  -1
M  END
>  <meeko>  (8) 
{"is_sidechain": false}

>  <vina_kcal_mol>  (8) 
-5.78

>  <rmsd_cristal>  (8) 
4.87

$$$$
pose 9
     RDKit          3D

 43 44  0  0  0  0  0  0  0  0999 V2000
  161.4460  193.3670  178.2950 C   0  0  0  0  0  0  0  0  0  0  0  0
  162.5970  193.8900  178.9560 O   0  0  0  0  0  0  0  0  0  0  0  0
  163.7590  193.6680  178.2950 C   0  0  0  0  0  0  0  0  0  0  0  0
  164.3460  192.6010  178.1990 O   0  0  0  0  0  0  0  0  0  0  0  0
  164.2090  194.9160  177.6470 C   0  0  0  0  0  0  0  0  0  0  0  0
  164.8040  195.8860  178.3790 C   0  0  0  0  0  0  0  0  0  0  0  0
  165.2000  195.7520  179.8280 C   0  0  0  0  0  0  0  0  0  0  0  0
  165.0740  197.1150  177.7930 N   0  0  0  0  0  0  0  0  0  0  0  0
  164.5950  197.5060  176.5510 C   0  0  0  0  0  0  0  0  0  0  0  0
  164.7260  198.9740  176.2320 C   0  0  0  0  0  0  0  0  0  0  0  0
  164.0070  196.5910  175.7460 C   0  0  0  0  0  0  0  0  0  0  0  0
  163.4520  196.8830  174.4040 C   0  0  0  0  0  0  0  0  0  0  0  0
  162.2600  196.8050  174.1500 O   0  0  0  0  0  0  0  0  0  0  0  0
  164.4400  197.1270  173.5080 O   0  0  0  0  0  0  0  0  0  0  0  0
  164.2190  196.5290  172.2300 C   0  0  0  0  0  0  0  0  0  0  0  0
  163.8410  195.1290  176.1830 C   0  0  0  0  0  0  0  0  0  0  0  0
  164.6380  194.2100  175.2450 C   0  0  0  0  0  0  0  0  0  0  0  0
  166.0450  194.1660  175.3710 C   0  0  0  0  0  0  0  0  0  0  0  0
  166.8300  193.3850  174.5180 C   0  0  0  0  0  0  0  0  0  0  0  0
  166.2350  192.6250  173.5150 C   0  0  0  0  0  0  0  0  0  0  0  0
  164.8500  192.6390  173.3660 C   0  0  0  0  0  0  0  0  0  0  0  0
  164.0610  193.4220  174.2280 C   0  0  0  0  0  0  0  0  0  0  0  0
  162.6160  193.3460  174.0270 N   0  0  0  0  0  0  0  0  0  0  0  0
  162.1770  193.6640  172.9140 O   0  0  0  0  0  0  0  0  0  0  0  0
  161.9260  193.0290  175.0060 O   0  0  0  0  0  0  0  0  0  0  0  0
  160.7127  193.0338  179.0442 H   0  0  0  0  0  0  0  0  0  0  0  0
  160.9974  194.1497  177.6656 H   0  0  0  0  0  0  0  0  0  0  0  0
  161.7405  192.5143  177.6656 H   0  0  0  0  0  0  0  0  0  0  0  0
  164.3524  196.0388  180.4678 H   0  0  0  0  0  0  0  0  0  0  0  0
  165.4803  194.7090  180.0366 H   0  0  0  0  0  0  0  0  0  0  0  0
  166.0561  196.4105  180.0366 H   0  0  0  0  0  0  0  0  0  0  0  0
  165.3980  197.8550  178.4190 H   0  0  0  0  0  0  0  0  0  0  0  0
  164.7773  199.5495  177.1680 H   0  0  0  0  0  0  0  0  0  0  0  0
  165.6427  199.1419  175.6476 H   0  0  0  0  0  0  0  0  0  0  0  0
  163.8535  199.3015  175.6476 H   0  0  0  0  0  0  0  0  0  0  0  0
  163.8405  195.5050  172.3648 H   0  0  0  0  0  0  0  0  0  0  0  0
  163.4807  197.1221  171.6704 H   0  0  0  0  0  0  0  0  0  0  0  0
  165.1656  196.4994  171.6704 H   0  0  0  0  0  0  0  0  0  0  0  0
  162.7759  194.8659  176.1033 H   0  0  0  0  0  0  0  0  0  0  0  0
  166.5332  194.7596  176.1579 H   0  0  0  0  0  0  0  0  0  0  0  0
  167.9231  193.3709  174.6399 H   0  0  0  0  0  0  0  0  0  0  0  0
  166.8563  192.0155  172.8424 H   0  0  0  0  0  0  0  0  0  0  0  0
  164.3745  192.0391  172.5761 H   0  0  0  0  0  0  0  0  0  0  0  0
  1  2  1  0
  2  3  1  0
  3  4  2  0
  3  5  1  0
  5  6  2  0
  6  7  1  0
  6  8  1  0
  8  9  1  0
  9 10  1  0
  9 11  2  0
 11 12  1  0
 12 13  2  0
 12 14  1  0
 14 15  1  0
 11 16  1  0
 16 17  1  0
 17 18  2  0
 18 19  1  0
 19 20  2  0
 20 21  1  0
 21 22  2  0
 22 23  1  0
 23 24  2  0
 23 25  1  0
 16  5  1  0
 22 17  1  0
  1 26  1  0
  1 27  1  0
  1 28  1  0
  7 29  1  0
  7 30  1  0
  7 31  1  0
  8 32  1  0
 10 33  1  0
 10 34  1  0
 10 35  1  0
 15 36  1  0
 15 37  1  0
 15 38  1  0
 16 39  1  0
 18 40  1  0
 19 41  1  0
 20 42  1  0
 21 43  1  0
M  CHG  2  23   1  25  -1
M  END
>  <meeko>  (9) 
{"is_sidechain": false}

>  <vina_kcal_mol>  (9) 
-5.776

>  <rmsd_cristal>  (9) 
4.4

$$$$
