nifedipino (6JP5/C5U)
     RDKit          3D

 43 44  0  0  0  0  0  0  0  0999 V2000
  166.2010  193.0790  173.8500 C   0  0  0  0  0  0  0  0  0  0  0  0
  164.9950  193.6990  171.9500 C   0  0  0  0  0  0  0  0  0  0  0  0
  163.5680  194.4060  175.0670 C   0  0  0  0  0  0  0  0  0  0  0  0
  161.6070  193.9610  173.7390 C   0  0  0  0  0  0  0  0  0  0  0  0
  163.3700  195.7760  174.9000 C   0  0  0  0  0  0  0  0  0  0  0  0
  166.2710  190.2450  175.0430 C   0  0  0  0  0  0  0  0  0  0  0  0
  162.6980  194.0370  178.9770 O   0  0  0  0  0  0  0  0  0  0  0  0
  163.3230  194.4310  178.0560 C   0  0  0  0  0  0  0  0  0  0  0  0
  163.2760  195.7860  177.6860 O   0  0  0  0  0  0  0  0  0  0  0  0
  162.9190  196.6560  178.7380 C   0  0  0  0  0  0  0  0  0  0  0  0
  164.1980  193.4490  177.2680 C   0  0  0  0  0  0  0  0  0  0  0  0
  164.8140  192.2660  178.0050 C   0  0  0  0  0  0  0  0  0  0  0  0
  165.7040  191.3940  177.2750 N   0  0  0  0  0  0  0  0  0  0  0  0
  165.7020  191.4370  175.8370 C   0  0  0  0  0  0  0  0  0  0  0  0
  165.4140  192.7540  175.1290 C   0  0  0  0  0  0  0  0  0  0  0  0
  167.1430  192.4310  173.5580 O   0  0  0  0  0  0  0  0  0  0  0  0
  165.8000  194.1340  173.0250 O   0  0  0  0  0  0  0  0  0  0  0  0
  164.7580  193.8920  175.9130 C   0  0  0  0  0  0  0  0  0  0  0  0
  162.6830  193.5010  174.4930 C   0  0  0  0  0  0  0  0  0  0  0  0
  161.4170  195.3300  173.5690 C   0  0  0  0  0  0  0  0  0  0  0  0
  162.2950  196.2390  174.1510 C   0  0  0  0  0  0  0  0  0  0  0  0
  164.2930  196.7290  175.5120 N   0  0  0  0  0  0  0  0  0  0  0  0
  165.6520  196.4220  175.6140 O   0  0  0  0  0  0  0  0  0  0  0  0
  163.8930  197.7560  175.9200 O   0  0  0  0  0  0  0  0  0  0  0  0
  164.1100  191.7420  179.2670 C   0  0  0  0  0  0  0  0  0  0  0  0
  164.0911  193.2106  172.3430 H   0  0  0  0  0  0  0  0  0  0  0  0
  164.7063  194.5639  171.3347 H   0  0  0  0  0  0  0  0  0  0  0  0
  165.5603  192.9836  171.3347 H   0  0  0  0  0  0  0  0  0  0  0  0
  160.9093  193.2456  173.2791 H   0  0  0  0  0  0  0  0  0  0  0  0
  166.6366  189.4792  175.7429 H   0  0  0  0  0  0  0  0  0  0  0  0
  165.4808  189.8156  174.4097 H   0  0  0  0  0  0  0  0  0  0  0  0
  167.1018  190.5894  174.4097 H   0  0  0  0  0  0  0  0  0  0  0  0
  163.1198  196.1668  179.7025 H   0  0  0  0  0  0  0  0  0  0  0  0
  163.5104  197.5807  178.6658 H   0  0  0  0  0  0  0  0  0  0  0  0
  161.8486  196.8988  178.6658 H   0  0  0  0  0  0  0  0  0  0  0  0
  166.3317  190.7500  177.7771 H   0  0  0  0  0  0  0  0  0  0  0  0
  165.5266  194.6557  176.1029 H   0  0  0  0  0  0  0  0  0  0  0  0
  162.8329  192.4205  174.6346 H   0  0  0  0  0  0  0  0  0  0  0  0
  160.5684  195.6946  172.9715 H   0  0  0  0  0  0  0  0  0  0  0  0
  162.1388  197.3198  174.0188 H   0  0  0  0  0  0  0  0  0  0  0  0
  164.6251  192.1254  180.1601 H   0  0  0  0  0  0  0  0  0  0  0  0
  163.0643  192.0833  179.2720 H   0  0  0  0  0  0  0  0  0  0  0  0
  164.1368  190.6423  179.2720 H   0  0  0  0  0  0  0  0  0  0  0  0
  5  3  1  0
  8  7  2  0
  9  8  1  0
 10  9  1  0
 11  8  1  0
 12 11  2  0
 13 12  1  0
 14  6  1  0
 14 13  1  0
 15  1  1  0
 15 14  2  0
 16  1  2  0
 17  2  1  0
 17  1  1  0
 18 15  1  0
 18 11  1  0
 18  3  1  0
 19  4  1  0
 19  3  2  0
 20  4  2  0
 21 20  1  0
 21  5  2  0
 22  5  1  0
 23 22  1  0
 24 22  2  0
 25 12  1  0
  2 26  1  0
  2 27  1  0
  2 28  1  0
  4 29  1  0
  6 30  1  0
  6 31  1  0
  6 32  1  0
 10 33  1  0
 10 34  1  0
 10 35  1  0
 13 36  1  0
 18 37  1  0
 19 38  1  0
 20 39  1  0
 21 40  1  0
 25 41  1  0
 25 42  1  0
 25 43  1  0
M  CHG  2  22   1  23  -1
M  END
$$$$
