pose 1
     RDKit          3D

 33 35  0  0  0  0  0  0  0  0999 V2000
  144.4460  119.7960  120.6120 C   0  0  0  0  0  0  0  0  0  0  0  0
  145.3290  120.8130  121.1700 N   0  0  0  0  0  0  0  0  0  0  0  0
  146.3120  120.3680  122.0610 C   0  0  0  0  0  0  0  0  0  0  0  0
  146.3980  119.1860  122.4100 O   0  0  0  0  0  0  0  0  0  0  0  0
  147.3480  121.3900  122.5250 C   0  0  0  0  0  0  0  0  0  0  0  0
  146.7150  122.3620  123.4090 N   0  0  0  0  0  0  0  0  0  0  0  0
  145.8880  123.2040  122.8890 C   0  0  0  0  0  0  0  0  0  0  0  0
  145.2010  124.1550  123.8210 C   0  0  0  0  0  0  0  0  0  0  0  0
  145.9700  124.8850  124.7360 C   0  0  0  0  0  0  0  0  0  0  0  0
  145.3540  125.7780  125.6150 C   0  0  0  0  0  0  0  0  0  0  0  0
  143.9690  125.9350  125.5910 C   0  0  0  0  0  0  0  0  0  0  0  0
  143.1960  125.1960  124.6950 C   0  0  0  0  0  0  0  0  0  0  0  0
  143.8080  124.3020  123.8140 C   0  0  0  0  0  0  0  0  0  0  0  0
  145.5880  123.2860  121.4290 C   0  0  0  0  0  0  0  0  0  0  0  0
  145.5820  124.5690  120.8510 C   0  0  0  0  0  0  0  0  0  0  0  0
  145.1990  124.7360  119.5250 C   0  0  0  0  0  0  0  0  0  0  0  0
  145.1770  126.3060  118.8290 Cl  0  0  0  0  0  0  0  0  0  0  0  0
  144.8220  123.6360  118.7650 C   0  0  0  0  0  0  0  0  0  0  0  0
  144.8520  122.3560  119.3300 C   0  0  0  0  0  0  0  0  0  0  0  0
  145.2620  122.1490  120.6620 C   0  0  0  0  0  0  0  0  0  0  0  0
  143.9637  119.2405  121.4298 H   0  0  0  0  0  0  0  0  0  0  0  0
  143.6758  120.2789  119.9926 H   0  0  0  0  0  0  0  0  0  0  0  0
  145.0322  119.1012  119.9926 H   0  0  0  0  0  0  0  0  0  0  0  0
  148.1545  120.8737  123.0663 H   0  0  0  0  0  0  0  0  0  0  0  0
  147.7655  121.9097  121.6501 H   0  0  0  0  0  0  0  0  0  0  0  0
  147.0619  124.7545  124.7622 H   0  0  0  0  0  0  0  0  0  0  0  0
  145.9612  126.3574  126.3261 H   0  0  0  0  0  0  0  0  0  0  0  0
  143.4847  126.6428  126.2798 H   0  0  0  0  0  0  0  0  0  0  0  0
  142.1028  125.3178  124.6825 H   0  0  0  0  0  0  0  0  0  0  0  0
  143.1963  123.7133  123.1146 H   0  0  0  0  0  0  0  0  0  0  0  0
  145.8811  125.4419  121.4498 H   0  0  0  0  0  0  0  0  0  0  0  0
  144.5007  123.7707  117.7216 H   0  0  0  0  0  0  0  0  0  0  0  0
  144.5487  121.4920  118.7204 H   0  0  0  0  0  0  0  0  0  0  0  0
  1  2  1  0
  2  3  1  0
  3  4  2  0
  3  5  1  0
  5  6  1  0
  6  7  2  0
  7  8  1  0
  8  9  2  0
  9 10  1  0
 10 11  2  0
 11 12  1  0
 12 13  2  0
  7 14  1  0
 14 15  1  0
 15 16  2  0
 16 17  1  0
 16 18  1  0
 18 19  2  0
 19 20  1  0
 20  2  1  0
 13  8  1  0
 20 14  2  0
  1 21  1  0
  1 22  1  0
  1 23  1  0
  5 24  1  0
  5 25  1  0
  9 26  1  0
 10 27  1  0
 11 28  1  0
 12 29  1  0
 13 30  1  0
 15 31  1  0
 18 32  1  0
 19 33  1  0
M  END
>  <meeko>  (1) 
{"is_sidechain": false}

>  <vina_kcal_mol>  (1) 
-8.024

>  <rmsd_cristal>  (1) 
0.74

$$$$
pose 2
     RDKit          3D

 33 35  0  0  0  0  0  0  0  0999 V2000
  145.1990  124.8720  119.0970 C   0  0  0  0  0  0  0  0  0  0  0  0
  145.0230  123.8120  120.0810 N   0  0  0  0  0  0  0  0  0  0  0  0
  144.7190  122.5390  119.5830 C   0  0  0  0  0  0  0  0  0  0  0  0
  144.4930  122.3380  118.3850 O   0  0  0  0  0  0  0  0  0  0  0  0
  144.7850  121.4640  120.6380 C   0  0  0  0  0  0  0  0  0  0  0  0
  146.1850  121.1890  120.9380 N   0  0  0  0  0  0  0  0  0  0  0  0
  146.8190  122.0280  121.6860 C   0  0  0  0  0  0  0  0  0  0  0  0
  148.2390  121.6980  122.0340 C   0  0  0  0  0  0  0  0  0  0  0  0
  149.2730  122.4210  121.4270 C   0  0  0  0  0  0  0  0  0  0  0  0
  150.6040  122.1330  121.7350 C   0  0  0  0  0  0  0  0  0  0  0  0
  150.9060  121.1160  122.6390 C   0  0  0  0  0  0  0  0  0  0  0  0
  149.8800  120.3800  123.2330 C   0  0  0  0  0  0  0  0  0  0  0  0
  148.5480  120.6640  122.9280 C   0  0  0  0  0  0  0  0  0  0  0  0
  146.2270  123.2930  122.2100 C   0  0  0  0  0  0  0  0  0  0  0  0
  146.5520  123.6510  123.5310 C   0  0  0  0  0  0  0  0  0  0  0  0
  145.9490  124.7520  124.1260 C   0  0  0  0  0  0  0  0  0  0  0  0
  146.3390  125.1750  125.7450 Cl  0  0  0  0  0  0  0  0  0  0  0  0
  145.0230  125.5070  123.4170 C   0  0  0  0  0  0  0  0  0  0  0  0
  144.7170  125.1690  122.0950 C   0  0  0  0  0  0  0  0  0  0  0  0
  145.3310  124.0760  121.4530 C   0  0  0  0  0  0  0  0  0  0  0  0
  145.3580  125.8297  119.6142 H   0  0  0  0  0  0  0  0  0  0  0  0
  146.0719  124.6462  118.4669 H   0  0  0  0  0  0  0  0  0  0  0  0
  144.2999  124.9404  118.4669 H   0  0  0  0  0  0  0  0  0  0  0  0
  144.2717  121.8069  121.5485 H   0  0  0  0  0  0  0  0  0  0  0  0
  144.2933  120.5501  120.2732 H   0  0  0  0  0  0  0  0  0  0  0  0
  149.0363  123.2174  120.7061 H   0  0  0  0  0  0  0  0  0  0  0  0
  151.4144  122.7088  121.2642 H   0  0  0  0  0  0  0  0  0  0  0  0
  151.9548  120.8932  122.8846 H   0  0  0  0  0  0  0  0  0  0  0  0
  150.1214  119.5749  123.9426 H   0  0  0  0  0  0  0  0  0  0  0  0
  147.7407  120.0762  123.3894 H   0  0  0  0  0  0  0  0  0  0  0  0
  147.2863  123.0570  124.0949 H   0  0  0  0  0  0  0  0  0  0  0  0
  144.5320  126.3680  123.8941 H   0  0  0  0  0  0  0  0  0  0  0  0
  143.9795  125.7708  121.5436 H   0  0  0  0  0  0  0  0  0  0  0  0
  1  2  1  0
  2  3  1  0
  3  4  2  0
  3  5  1  0
  5  6  1  0
  6  7  2  0
  7  8  1  0
  8  9  2  0
  9 10  1  0
 10 11  2  0
 11 12  1  0
 12 13  2  0
  7 14  1  0
 14 15  1  0
 15 16  2  0
 16 17  1  0
 16 18  1  0
 18 19  2  0
 19 20  1  0
 20  2  1  0
 13  8  1  0
 20 14  2  0
  1 21  1  0
  1 22  1  0
  1 23  1  0
  5 24  1  0
  5 25  1  0
  9 26  1  0
 10 27  1  0
 11 28  1  0
 12 29  1  0
 13 30  1  0
 15 31  1  0
 18 32  1  0
 19 33  1  0
M  END
>  <meeko>  (2) 
{"is_sidechain": false}

>  <vina_kcal_mol>  (2) 
-7.135

>  <rmsd_cristal>  (2) 
5.36

$$$$
pose 3
     RDKit          3D

 33 35  0  0  0  0  0  0  0  0999 V2000
  145.2900  127.5480  126.3120 C   0  0  0  0  0  0  0  0  0  0  0  0
  145.3690  126.2620  125.6310 N   0  0  0  0  0  0  0  0  0  0  0  0
  146.6090  125.6120  125.6620 C   0  0  0  0  0  0  0  0  0  0  0  0
  147.5990  126.1080  126.2100 O   0  0  0  0  0  0  0  0  0  0  0  0
  146.6760  124.2050  125.0520 C   0  0  0  0  0  0  0  0  0  0  0  0
  146.5070  124.2740  123.6050 N   0  0  0  0  0  0  0  0  0  0  0  0
  145.3410  124.5840  123.1470 C   0  0  0  0  0  0  0  0  0  0  0  0
  145.2000  124.7090  121.6610 C   0  0  0  0  0  0  0  0  0  0  0  0
  145.6380  123.6590  120.8450 C   0  0  0  0  0  0  0  0  0  0  0  0
  145.5170  123.7510  119.4580 C   0  0  0  0  0  0  0  0  0  0  0  0
  144.9710  124.8970  118.8800 C   0  0  0  0  0  0  0  0  0  0  0  0
  144.5520  125.9550  119.6870 C   0  0  0  0  0  0  0  0  0  0  0  0
  144.6700  125.8670  121.0750 C   0  0  0  0  0  0  0  0  0  0  0  0
  144.1410  124.8140  124.0040 C   0  0  0  0  0  0  0  0  0  0  0  0
  142.9450  124.1900  123.6070 C   0  0  0  0  0  0  0  0  0  0  0  0
  141.7610  124.4490  124.2880 C   0  0  0  0  0  0  0  0  0  0  0  0
  140.3000  123.6970  123.7880 Cl  0  0  0  0  0  0  0  0  0  0  0  0
  141.7560  125.3250  125.3660 C   0  0  0  0  0  0  0  0  0  0  0  0
  142.9490  125.9260  125.7800 C   0  0  0  0  0  0  0  0  0  0  0  0
  144.1700  125.6640  125.1290 C   0  0  0  0  0  0  0  0  0  0  0  0
  145.2998  127.3878  127.4002 H   0  0  0  0  0  0  0  0  0  0  0  0
  146.1517  128.1685  126.0249 H   0  0  0  0  0  0  0  0  0  0  0  0
  144.3588  128.0583  126.0249 H   0  0  0  0  0  0  0  0  0  0  0  0
  147.6531  123.7553  125.2825 H   0  0  0  0  0  0  0  0  0  0  0  0
  145.8694  123.5905  125.4783 H   0  0  0  0  0  0  0  0  0  0  0  0
  146.0787  122.7590  121.2986 H   0  0  0  0  0  0  0  0  0  0  0  0
  145.8522  122.9197  118.8203 H   0  0  0  0  0  0  0  0  0  0  0  0
  144.8707  124.9666  117.7868 H   0  0  0  0  0  0  0  0  0  0  0  0
  144.1278  126.8604  119.2285 H   0  0  0  0  0  0  0  0  0  0  0  0
  144.3472  126.7060  121.7089 H   0  0  0  0  0  0  0  0  0  0  0  0
  142.9463  123.4946  122.7547 H   0  0  0  0  0  0  0  0  0  0  0  0
  140.8159  125.5455  125.8928 H   0  0  0  0  0  0  0  0  0  0  0  0
  142.9333  126.6194  126.6338 H   0  0  0  0  0  0  0  0  0  0  0  0
  1  2  1  0
  2  3  1  0
  3  4  2  0
  3  5  1  0
  5  6  1  0
  6  7  2  0
  7  8  1  0
  8  9  2  0
  9 10  1  0
 10 11  2  0
 11 12  1  0
 12 13  2  0
  7 14  1  0
 14 15  1  0
 15 16  2  0
 16 17  1  0
 16 18  1  0
 18 19  2  0
 19 20  1  0
 20  2  1  0
 13  8  1  0
 20 14  2  0
  1 21  1  0
  1 22  1  0
  1 23  1  0
  5 24  1  0
  5 25  1  0
  9 26  1  0
 10 27  1  0
 11 28  1  0
 12 29  1  0
 13 30  1  0
 15 31  1  0
 18 32  1  0
 19 33  1  0
M  END
>  <meeko>  (3) 
{"is_sidechain": false}

>  <vina_kcal_mol>  (3) 
-6.721

>  <rmsd_cristal>  (3) 
5.71

$$$$
pose 4
     RDKit          3D

 33 35  0  0  0  0  0  0  0  0999 V2000
  140.9840  124.7840  125.1770 C   0  0  0  0  0  0  0  0  0  0  0  0
  142.1050  125.0250  124.2780 N   0  0  0  0  0  0  0  0  0  0  0  0
  141.7980  125.1840  122.9220 C   0  0  0  0  0  0  0  0  0  0  0  0
  140.6420  125.0980  122.4940 O   0  0  0  0  0  0  0  0  0  0  0  0
  142.9500  125.5520  121.9830 C   0  0  0  0  0  0  0  0  0  0  0  0
  143.8820  124.4370  121.8620 N   0  0  0  0  0  0  0  0  0  0  0  0
  144.6090  124.1430  122.8860 C   0  0  0  0  0  0  0  0  0  0  0  0
  145.5170  122.9570  122.7650 C   0  0  0  0  0  0  0  0  0  0  0  0
  146.9020  123.1480  122.8590 C   0  0  0  0  0  0  0  0  0  0  0  0
  147.7690  122.0600  122.7500 C   0  0  0  0  0  0  0  0  0  0  0  0
  147.2580  120.7810  122.5330 C   0  0  0  0  0  0  0  0  0  0  0  0
  145.8810  120.5870  122.4180 C   0  0  0  0  0  0  0  0  0  0  0  0
  145.0100  121.6730  122.5270 C   0  0  0  0  0  0  0  0  0  0  0  0
  144.6000  124.9120  124.1650 C   0  0  0  0  0  0  0  0  0  0  0  0
  145.8510  125.2360  124.7230 C   0  0  0  0  0  0  0  0  0  0  0  0
  145.9230  125.8500  125.9680 C   0  0  0  0  0  0  0  0  0  0  0  0
  147.4530  126.2280  126.6520 Cl  0  0  0  0  0  0  0  0  0  0  0  0
  144.7590  126.1470  126.6660 C   0  0  0  0  0  0  0  0  0  0  0  0
  143.5140  125.8500  126.1020 C   0  0  0  0  0  0  0  0  0  0  0  0
  143.4050  125.2540  124.8310 C   0  0  0  0  0  0  0  0  0  0  0  0
  141.3275  124.8578  126.2194 H   0  0  0  0  0  0  0  0  0  0  0  0
  140.2003  125.5342  124.9952 H   0  0  0  0  0  0  0  0  0  0  0  0
  140.5779  123.7780  124.9952 H   0  0  0  0  0  0  0  0  0  0  0  0
  142.5446  125.7952  120.9898 H   0  0  0  0  0  0  0  0  0  0  0  0
  143.4839  126.4206  122.3959 H   0  0  0  0  0  0  0  0  0  0  0  0
  147.3068  124.1582  123.0191 H   0  0  0  0  0  0  0  0  0  0  0  0
  148.8552  122.2113  122.8352 H   0  0  0  0  0  0  0  0  0  0  0  0
  147.9418  119.9231  122.4523 H   0  0  0  0  0  0  0  0  0  0  0  0
  145.4812  119.5776  122.2413 H   0  0  0  0  0  0  0  0  0  0  0  0
  143.9254  121.5202  122.4259 H   0  0  0  0  0  0  0  0  0  0  0  0
  146.7742  125.0027  124.1723 H   0  0  0  0  0  0  0  0  0  0  0  0
  144.8164  126.6147  127.6600 H   0  0  0  0  0  0  0  0  0  0  0  0
  142.5989  126.0875  126.6644 H   0  0  0  0  0  0  0  0  0  0  0  0
  1  2  1  0
  2  3  1  0
  3  4  2  0
  3  5  1  0
  5  6  1  0
  6  7  2  0
  7  8  1  0
  8  9  2  0
  9 10  1  0
 10 11  2  0
 11 12  1  0
 12 13  2  0
  7 14  1  0
 14 15  1  0
 15 16  2  0
 16 17  1  0
 16 18  1  0
 18 19  2  0
 19 20  1  0
 20  2  1  0
 13  8  1  0
 20 14  2  0
  1 21  1  0
  1 22  1  0
  1 23  1  0
  5 24  1  0
  5 25  1  0
  9 26  1  0
 10 27  1  0
 11 28  1  0
 12 29  1  0
 13 30  1  0
 15 31  1  0
 18 32  1  0
 19 33  1  0
M  END
>  <meeko>  (4) 
{"is_sidechain": false}

>  <vina_kcal_mol>  (4) 
-6.272

>  <rmsd_cristal>  (4) 
5.97

$$$$
pose 5
     RDKit          3D

 33 35  0  0  0  0  0  0  0  0999 V2000
  144.9260  125.2960  118.7850 C   0  0  0  0  0  0  0  0  0  0  0  0
  144.9140  124.4890  119.9980 N   0  0  0  0  0  0  0  0  0  0  0  0
  144.7120  125.1730  121.2030 C   0  0  0  0  0  0  0  0  0  0  0  0
  144.5580  126.3980  121.2470 O   0  0  0  0  0  0  0  0  0  0  0  0
  144.5830  124.3240  122.4770 C   0  0  0  0  0  0  0  0  0  0  0  0
  145.8600  123.6950  122.7960 N   0  0  0  0  0  0  0  0  0  0  0  0
  146.2780  122.7500  122.0240 C   0  0  0  0  0  0  0  0  0  0  0  0
  147.6190  122.1570  122.3310 C   0  0  0  0  0  0  0  0  0  0  0  0
  148.7240  122.5350  121.5570 C   0  0  0  0  0  0  0  0  0  0  0  0
  149.9840  121.9970  121.8240 C   0  0  0  0  0  0  0  0  0  0  0  0
  150.1430  121.0720  122.8550 C   0  0  0  0  0  0  0  0  0  0  0  0
  149.0430  120.6770  123.6170 C   0  0  0  0  0  0  0  0  0  0  0  0
  147.7800  121.2120  123.3540 C   0  0  0  0  0  0  0  0  0  0  0  0
  145.5080  122.2190  120.8610 C   0  0  0  0  0  0  0  0  0  0  0  0
  145.4250  120.8200  120.7370 C   0  0  0  0  0  0  0  0  0  0  0  0
  144.8230  120.2520  119.6200 C   0  0  0  0  0  0  0  0  0  0  0  0
  144.7390  118.5420  119.4660 Cl  0  0  0  0  0  0  0  0  0  0  0  0
  144.2990  121.0640  118.6230 C   0  0  0  0  0  0  0  0  0  0  0  0
  144.3570  122.4550  118.7560 C   0  0  0  0  0  0  0  0  0  0  0  0
  144.9350  123.0630  119.8880 C   0  0  0  0  0  0  0  0  0  0  0  0
  144.9418  126.3624  119.0542 H   0  0  0  0  0  0  0  0  0  0  0  0
  145.8206  125.0541  118.1925 H   0  0  0  0  0  0  0  0  0  0  0  0
  144.0246  125.0808  118.1925 H   0  0  0  0  0  0  0  0  0  0  0  0
  144.2768  124.9690  123.3138 H   0  0  0  0  0  0  0  0  0  0  0  0
  143.8291  123.5404  122.3108 H   0  0  0  0  0  0  0  0  0  0  0  0
  148.5983  123.2574  120.7370 H   0  0  0  0  0  0  0  0  0  0  0  0
  150.8516  122.3029  121.2209 H   0  0  0  0  0  0  0  0  0  0  0  0
  151.1375  120.6529  123.0681 H   0  0  0  0  0  0  0  0  0  0  0  0
  149.1707  119.9430  124.4263 H   0  0  0  0  0  0  0  0  0  0  0  0
  146.9120  120.8921  123.9492 H   0  0  0  0  0  0  0  0  0  0  0  0
  145.8375  120.1739  121.5259 H   0  0  0  0  0  0  0  0  0  0  0  0
  143.8393  120.6143  117.7306 H   0  0  0  0  0  0  0  0  0  0  0  0
  143.9419  123.0889  117.9586 H   0  0  0  0  0  0  0  0  0  0  0  0
  1  2  1  0
  2  3  1  0
  3  4  2  0
  3  5  1  0
  5  6  1  0
  6  7  2  0
  7  8  1  0
  8  9  2  0
  9 10  1  0
 10 11  2  0
 11 12  1  0
 12 13  2  0
  7 14  1  0
 14 15  1  0
 15 16  2  0
 16 17  1  0
 16 18  1  0
 18 19  2  0
 19 20  1  0
 20  2  1  0
 13  8  1  0
 20 14  2  0
  1 21  1  0
  1 22  1  0
  1 23  1  0
  5 24  1  0
  5 25  1  0
  9 26  1  0
 10 27  1  0
 11 28  1  0
 12 29  1  0
 13 30  1  0
 15 31  1  0
 18 32  1  0
 19 33  1  0
M  END
>  <meeko>  (5) 
{"is_sidechain": false}

>  <vina_kcal_mol>  (5) 
-6.226

>  <rmsd_cristal>  (5) 
5.22

$$$$
pose 6
     RDKit          3D

 33 35  0  0  0  0  0  0  0  0999 V2000
  145.2360  120.5540  121.0930 C   0  0  0  0  0  0  0  0  0  0  0  0
  144.7970  121.9300  121.2870 N   0  0  0  0  0  0  0  0  0  0  0  0
  145.3740  122.8950  120.4530 C   0  0  0  0  0  0  0  0  0  0  0  0
  146.2660  122.6180  119.6440 O   0  0  0  0  0  0  0  0  0  0  0  0
  144.7970  124.3090  120.5170 C   0  0  0  0  0  0  0  0  0  0  0  0
  145.1620  124.9230  121.7890 N   0  0  0  0  0  0  0  0  0  0  0  0
  144.6000  124.4750  122.8600 C   0  0  0  0  0  0  0  0  0  0  0  0
  145.0320  125.0740  124.1630 C   0  0  0  0  0  0  0  0  0  0  0  0
  146.2910  124.7440  124.6800 C   0  0  0  0  0  0  0  0  0  0  0  0
  146.7170  125.2900  125.8910 C   0  0  0  0  0  0  0  0  0  0  0  0
  145.8830  126.1570  126.5970 C   0  0  0  0  0  0  0  0  0  0  0  0
  144.6200  126.4740  126.0970 C   0  0  0  0  0  0  0  0  0  0  0  0
  144.1900  125.9300  124.8850 C   0  0  0  0  0  0  0  0  0  0  0  0
  143.5530  123.4110  122.8710 C   0  0  0  0  0  0  0  0  0  0  0  0
  142.4150  123.6450  123.6650 C   0  0  0  0  0  0  0  0  0  0  0  0
  141.4520  122.6540  123.8160 C   0  0  0  0  0  0  0  0  0  0  0  0
  140.0730  122.9390  124.8010 Cl  0  0  0  0  0  0  0  0  0  0  0  0
  141.6090  121.4290  123.1820 C   0  0  0  0  0  0  0  0  0  0  0  0
  142.7260  121.2030  122.3700 C   0  0  0  0  0  0  0  0  0  0  0  0
  143.7060  122.1960  122.1740 C   0  0  0  0  0  0  0  0  0  0  0  0
  145.3884  120.0763  122.0721 H   0  0  0  0  0  0  0  0  0  0  0  0
  144.4698  120.0006  120.5303 H   0  0  0  0  0  0  0  0  0  0  0  0
  146.1811  120.5465  120.5303 H   0  0  0  0  0  0  0  0  0  0  0  0
  145.2033  124.9092  119.6896 H   0  0  0  0  0  0  0  0  0  0  0  0
  143.7013  124.2635  120.4315 H   0  0  0  0  0  0  0  0  0  0  0  0
  146.9458  124.0524  124.1297 H   0  0  0  0  0  0  0  0  0  0  0  0
  147.7107  125.0368  126.2892 H   0  0  0  0  0  0  0  0  0  0  0  0
  146.2217  126.5912  127.5492 H   0  0  0  0  0  0  0  0  0  0  0  0
  143.9618  127.1535  126.6583 H   0  0  0  0  0  0  0  0  0  0  0  0
  143.1899  126.1736  124.4970 H   0  0  0  0  0  0  0  0  0  0  0  0
  142.2871  124.6150  124.1677 H   0  0  0  0  0  0  0  0  0  0  0  0
  140.8570  120.6378  123.3176 H   0  0  0  0  0  0  0  0  0  0  0  0
  142.8415  120.2282  121.8736 H   0  0  0  0  0  0  0  0  0  0  0  0
  1  2  1  0
  2  3  1  0
  3  4  2  0
  3  5  1  0
  5  6  1  0
  6  7  2  0
  7  8  1  0
  8  9  2  0
  9 10  1  0
 10 11  2  0
 11 12  1  0
 12 13  2  0
  7 14  1  0
 14 15  1  0
 15 16  2  0
 16 17  1  0
 16 18  1  0
 18 19  2  0
 19 20  1  0
 20  2  1  0
 13  8  1  0
 20 14  2  0
  1 21  1  0
  1 22  1  0
  1 23  1  0
  5 24  1  0
  5 25  1  0
  9 26  1  0
 10 27  1  0
 11 28  1  0
 12 29  1  0
 13 30  1  0
 15 31  1  0
 18 32  1  0
 19 33  1  0
M  END
>  <meeko>  (6) 
{"is_sidechain": false}

>  <vina_kcal_mol>  (6) 
-6.084

>  <rmsd_cristal>  (6) 
3.72

$$$$
pose 7
     RDKit          3D

 33 35  0  0  0  0  0  0  0  0999 V2000
  144.8960  125.0280  121.3760 C   0  0  0  0  0  0  0  0  0  0  0  0
  145.4520  123.9000  122.1120 N   0  0  0  0  0  0  0  0  0  0  0  0
  145.9070  124.1620  123.4100 C   0  0  0  0  0  0  0  0  0  0  0  0
  145.8800  125.2950  123.9010 O   0  0  0  0  0  0  0  0  0  0  0  0
  146.3720  122.9810  124.2340 C   0  0  0  0  0  0  0  0  0  0  0  0
  147.6080  122.4290  123.6920 N   0  0  0  0  0  0  0  0  0  0  0  0
  147.5500  121.8070  122.5640 C   0  0  0  0  0  0  0  0  0  0  0  0
  148.8390  121.2990  121.9930 C   0  0  0  0  0  0  0  0  0  0  0  0
  149.4770  120.2170  122.6120 C   0  0  0  0  0  0  0  0  0  0  0  0
  150.6780  119.7250  122.0990 C   0  0  0  0  0  0  0  0  0  0  0  0
  151.2520  120.3190  120.9770 C   0  0  0  0  0  0  0  0  0  0  0  0
  150.6320  121.4110  120.3680 C   0  0  0  0  0  0  0  0  0  0  0  0
  149.4300  121.9060  120.8770 C   0  0  0  0  0  0  0  0  0  0  0  0
  146.2850  121.5620  121.8100 C   0  0  0  0  0  0  0  0  0  0  0  0
  146.0870  120.2660  121.3000 C   0  0  0  0  0  0  0  0  0  0  0  0
  144.9900  119.9930  120.4920 C   0  0  0  0  0  0  0  0  0  0  0  0
  144.7620  118.4120  119.8590 Cl  0  0  0  0  0  0  0  0  0  0  0  0
  144.0840  120.9990  120.1840 C   0  0  0  0  0  0  0  0  0  0  0  0
  144.2640  122.2830  120.7110 C   0  0  0  0  0  0  0  0  0  0  0  0
  145.3490  122.5860  121.5560 C   0  0  0  0  0  0  0  0  0  0  0  0
  144.5245  125.7817  122.0859 H   0  0  0  0  0  0  0  0  0  0  0  0
  145.6775  125.4740  120.7433 H   0  0  0  0  0  0  0  0  0  0  0  0
  144.0663  124.6798  120.7433 H   0  0  0  0  0  0  0  0  0  0  0  0
  146.5466  123.3094  125.2692 H   0  0  0  0  0  0  0  0  0  0  0  0
  145.5951  122.2027  124.2064 H   0  0  0  0  0  0  0  0  0  0  0  0
  149.0306  119.7539  123.5044 H   0  0  0  0  0  0  0  0  0  0  0  0
  151.1716  118.8680  122.5806 H   0  0  0  0  0  0  0  0  0  0  0  0
  152.1957  119.9265  120.5704 H   0  0  0  0  0  0  0  0  0  0  0  0
  151.0908  121.8821  119.4862 H   0  0  0  0  0  0  0  0  0  0  0  0
  148.9469  122.7725  120.4019 H   0  0  0  0  0  0  0  0  0  0  0  0
  146.8027  119.4664  121.5416 H   0  0  0  0  0  0  0  0  0  0  0  0
  143.2271  120.7874  119.5276 H   0  0  0  0  0  0  0  0  0  0  0  0
  143.5416  123.0734  120.4594 H   0  0  0  0  0  0  0  0  0  0  0  0
  1  2  1  0
  2  3  1  0
  3  4  2  0
  3  5  1  0
  5  6  1  0
  6  7  2  0
  7  8  1  0
  8  9  2  0
  9 10  1  0
 10 11  2  0
 11 12  1  0
 12 13  2  0
  7 14  1  0
 14 15  1  0
 15 16  2  0
 16 17  1  0
 16 18  1  0
 18 19  2  0
 19 20  1  0
 20  2  1  0
 13  8  1  0
 20 14  2  0
  1 21  1  0
  1 22  1  0
  1 23  1  0
  5 24  1  0
  5 25  1  0
  9 26  1  0
 10 27  1  0
 11 28  1  0
 12 29  1  0
 13 30  1  0
 15 31  1  0
 18 32  1  0
 19 33  1  0
M  END
>  <meeko>  (7) 
{"is_sidechain": false}

>  <vina_kcal_mol>  (7) 
-5.356

>  <rmsd_cristal>  (7) 
5.73

$$$$
pose 8
     RDKit          3D

 33 35  0  0  0  0  0  0  0  0999 V2000
  144.8200  124.5160  120.2600 C   0  0  0  0  0  0  0  0  0  0  0  0
  144.4040  123.7150  121.4040 N   0  0  0  0  0  0  0  0  0  0  0  0
  144.2350  122.3430  121.1810 C   0  0  0  0  0  0  0  0  0  0  0  0
  144.4090  121.8310  120.0700 O   0  0  0  0  0  0  0  0  0  0  0  0
  143.8930  121.4790  122.3880 C   0  0  0  0  0  0  0  0  0  0  0  0
  142.5580  121.7860  122.8880 N   0  0  0  0  0  0  0  0  0  0  0  0
  142.3760  122.9250  123.4660 C   0  0  0  0  0  0  0  0  0  0  0  0
  140.9850  123.2500  123.9190 C   0  0  0  0  0  0  0  0  0  0  0  0
  139.9930  122.2660  123.8270 C   0  0  0  0  0  0  0  0  0  0  0  0
  138.6900  122.5430  124.2430 C   0  0  0  0  0  0  0  0  0  0  0  0
  138.3700  123.8060  124.7390 C   0  0  0  0  0  0  0  0  0  0  0  0
  139.3500  124.7970  124.8140 C   0  0  0  0  0  0  0  0  0  0  0  0
  140.6550  124.5240  124.4000 C   0  0  0  0  0  0  0  0  0  0  0  0
  143.4610  123.9200  123.7110 C   0  0  0  0  0  0  0  0  0  0  0  0
  143.5200  124.4980  124.9920 C   0  0  0  0  0  0  0  0  0  0  0  0
  144.4290  125.5140  125.2600 C   0  0  0  0  0  0  0  0  0  0  0  0
  144.4840  126.2280  126.8230 Cl  0  0  0  0  0  0  0  0  0  0  0  0
  145.2860  125.9620  124.2640 C   0  0  0  0  0  0  0  0  0  0  0  0
  145.2490  125.3710  122.9970 C   0  0  0  0  0  0  0  0  0  0  0  0
  144.3590  124.3210  122.7000 C   0  0  0  0  0  0  0  0  0  0  0  0
  145.2999  125.4401  120.6145 H   0  0  0  0  0  0  0  0  0  0  0  0
  145.5341  123.9423  119.6510 H   0  0  0  0  0  0  0  0  0  0  0  0
  143.9400  124.7702  119.6510 H   0  0  0  0  0  0  0  0  0  0  0  0
  143.9327  120.4195  122.0950 H   0  0  0  0  0  0  0  0  0  0  0  0
  144.6223  121.6855  123.1852 H   0  0  0  0  0  0  0  0  0  0  0  0
  140.2414  121.2723  123.4259 H   0  0  0  0  0  0  0  0  0  0  0  0
  137.9153  121.7647  124.1795 H   0  0  0  0  0  0  0  0  0  0  0  0
  137.3439  124.0218  125.0716 H   0  0  0  0  0  0  0  0  0  0  0  0
  139.0937  125.7947  125.1999 H   0  0  0  0  0  0  0  0  0  0  0  0
  141.4240  125.3089  124.4514 H   0  0  0  0  0  0  0  0  0  0  0  0
  142.8440  124.1443  125.7845 H   0  0  0  0  0  0  0  0  0  0  0  0
  145.9922  126.7796  124.4708 H   0  0  0  0  0  0  0  0  0  0  0  0
  145.9309  125.7348  122.2143 H   0  0  0  0  0  0  0  0  0  0  0  0
  1  2  1  0
  2  3  1  0
  3  4  2  0
  3  5  1  0
  5  6  1  0
  6  7  2  0
  7  8  1  0
  8  9  2  0
  9 10  1  0
 10 11  2  0
 11 12  1  0
 12 13  2  0
  7 14  1  0
 14 15  1  0
 15 16  2  0
 16 17  1  0
 16 18  1  0
 18 19  2  0
 19 20  1  0
 20  2  1  0
 13  8  1  0
 20 14  2  0
  1 21  1  0
  1 22  1  0
  1 23  1  0
  5 24  1  0
  5 25  1  0
  9 26  1  0
 10 27  1  0
 11 28  1  0
 12 29  1  0
 13 30  1  0
 15 31  1  0
 18 32  1  0
 19 33  1  0
M  END
>  <meeko>  (8) 
{"is_sidechain": false}

>  <vina_kcal_mol>  (8) 
-5.107

>  <rmsd_cristal>  (8) 
4.88

$$$$
