diazepam (6X3X/DZP)
     RDKit          3D

 33 35  0  0  0  0  0  0  0  0999 V2000
  145.0310  126.2120  126.1330 C   0  0  0  0  0  0  0  0  0  0  0  0
  143.5910  126.1850  125.9400 C   0  0  0  0  0  0  0  0  0  0  0  0
  143.0020  125.3230  124.9270 C   0  0  0  0  0  0  0  0  0  0  0  0
  143.8560  124.4890  124.1020 C   0  0  0  0  0  0  0  0  0  0  0  0
  146.0100  123.5050  123.2750 C   0  0  0  0  0  0  0  0  0  0  0  0
  145.6490  122.4770  120.8780 C   0  0  0  0  0  0  0  0  0  0  0  0
  145.3340  122.5930  119.4540 C   0  0  0  0  0  0  0  0  0  0  0  0
  145.0660  123.8720  118.8410 C   0  0  0  0  0  0  0  0  0  0  0  0
  145.0940  125.0640  119.6570 C   0  0  0  0  0  0  0  0  0  0  0  0
  145.8890  125.3750  125.3120 C   0  0  0  0  0  0  0  0  0  0  0  0
  145.2990  124.5180  124.3000 C   0  0  0  0  0  0  0  0  0  0  0  0
  145.6670  123.6810  121.7010 C   0  0  0  0  0  0  0  0  0  0  0  0
  145.3900  124.9730  121.0710 C   0  0  0  0  0  0  0  0  0  0  0  0
  147.4490  123.1490  123.5950 N   0  0  0  0  0  0  0  0  0  0  0  0
  148.1450  122.2340  122.6170 C   0  0  0  0  0  0  0  0  0  0  0  0
  147.1990  120.9840  122.3470 C   0  0  0  0  0  0  0  0  0  0  0  0
  145.0340  119.9020  121.2300 C   0  0  0  0  0  0  0  0  0  0  0  0
  145.9330  121.0960  121.5100 N   0  0  0  0  0  0  0  0  0  0  0  0
  147.4830  119.8920  122.8590 O   0  0  0  0  0  0  0  0  0  0  0  0
  144.7490  126.7060  118.8520 Cl  0  0  0  0  0  0  0  0  0  0  0  0
  145.4712  126.8658  126.9003 H   0  0  0  0  0  0  0  0  0  0  0  0
  142.9432  126.8194  126.5629 H   0  0  0  0  0  0  0  0  0  0  0  0
  141.9112  125.3035  124.7867 H   0  0  0  0  0  0  0  0  0  0  0  0
  143.4163  123.8386  123.3315 H   0  0  0  0  0  0  0  0  0  0  0  0
  145.3006  121.6838  118.8357 H   0  0  0  0  0  0  0  0  0  0  0  0
  144.8432  123.9384  117.7658 H   0  0  0  0  0  0  0  0  0  0  0  0
  146.9794  125.3907  125.4565 H   0  0  0  0  0  0  0  0  0  0  0  0
  145.4070  125.8881  121.6811 H   0  0  0  0  0  0  0  0  0  0  0  0
  148.3326  122.7695  121.6747 H   0  0  0  0  0  0  0  0  0  0  0  0
  149.1086  121.8996  123.0289 H   0  0  0  0  0  0  0  0  0  0  0  0
  144.7024  119.4615  122.1818 H   0  0  0  0  0  0  0  0  0  0  0  0
  144.1571  120.2306  120.6528 H   0  0  0  0  0  0  0  0  0  0  0  0
  145.5922  119.1501  120.6528 H   0  0  0  0  0  0  0  0  0  0  0  0
  2  1  2  0
  3  2  1  0
  4  3  2  0
  7  6  1  0
  8  7  2  0
  9  8  1  0
 10  1  1  0
 11  5  1  0
 11  4  1  0
 11 10  2  0
 12  6  2  0
 12  5  1  0
 13  9  2  0
 13 12  1  0
 14  5  2  0
 15 14  1  0
 16 15  1  0
 18 17  1  0
 18  6  1  0
 18 16  1  0
 19 16  2  0
 20  9  1  0
  1 21  1  0
  2 22  1  0
  3 23  1  0
  4 24  1  0
  7 25  1  0
  8 26  1  0
 10 27  1  0
 13 28  1  0
 15 29  1  0
 15 30  1  0
 17 31  1  0
 17 32  1  0
 17 33  1  0
M  END
$$$$
