amlodipino
     RDKit          3D

 54 55  0  0  0  0  0  0  0  0999 V2000
  166.2920  194.9720  171.0570 C   0  0  0  0  0  0  0  0  0  0  0  0
  165.8750  193.5210  171.1980 C   0  0  0  0  0  0  0  0  0  0  0  0
  166.2000  193.0420  172.5100 O   0  0  0  0  0  0  0  0  0  0  0  0
  165.3380  192.1600  173.0550 C   0  0  0  0  0  0  0  0  0  0  0  0
  164.7870  191.2110  172.5070 O   0  0  0  0  0  0  0  0  0  0  0  0
  165.1730  192.4550  174.4860 C   0  0  0  0  0  0  0  0  0  0  0  0
  166.0270  191.9340  175.3960 C   0  0  0  0  0  0  0  0  0  0  0  0
  167.2130  191.0570  175.0250 C   0  0  0  0  0  0  0  0  0  0  0  0
  166.8980  189.6700  175.2060 O   0  0  0  0  0  0  0  0  0  0  0  0
  166.8970  188.9220  173.9880 C   0  0  0  0  0  0  0  0  0  0  0  0
  166.5080  187.4820  174.3310 C   0  0  0  0  0  0  0  0  0  0  0  0
  167.5670  186.5560  173.8570 N   0  0  0  0  0  0  0  0  0  0  0  0
  165.7910  192.1540  176.7460 N   0  0  0  0  0  0  0  0  0  0  0  0
  164.6720  192.8050  177.2490 C   0  0  0  0  0  0  0  0  0  0  0  0
  164.5270  192.8030  178.7500 C   0  0  0  0  0  0  0  0  0  0  0  0
  163.7760  193.3480  176.3930 C   0  0  0  0  0  0  0  0  0  0  0  0
  162.5220  193.9970  176.8290 C   0  0  0  0  0  0  0  0  0  0  0  0
  162.4460  195.1920  177.0640 O   0  0  0  0  0  0  0  0  0  0  0  0
  161.5460  193.0720  176.9810 O   0  0  0  0  0  0  0  0  0  0  0  0
  160.6470  192.9930  175.8730 C   0  0  0  0  0  0  0  0  0  0  0  0
  163.9590  193.2800  174.8790 C   0  0  0  0  0  0  0  0  0  0  0  0
  164.0070  194.6730  174.2420 C   0  0  0  0  0  0  0  0  0  0  0  0
  165.0050  195.5890  174.6410 C   0  0  0  0  0  0  0  0  0  0  0  0
  165.0820  196.8630  174.0780 C   0  0  0  0  0  0  0  0  0  0  0  0
  164.1740  197.2480  173.0970 C   0  0  0  0  0  0  0  0  0  0  0  0
  163.1920  196.3540  172.6740 C   0  0  0  0  0  0  0  0  0  0  0  0
  163.1110  195.0750  173.2340 C   0  0  0  0  0  0  0  0  0  0  0  0
  161.8930  194.0200  172.6070 Cl  0  0  0  0  0  0  0  0  0  0  0  0
  166.4195  195.4156  172.0555 H   0  0  0  0  0  0  0  0  0  0  0  0
  167.2427  195.0285  170.5066 H   0  0  0  0  0  0  0  0  0  0  0  0
  165.5163  195.5246  170.5066 H   0  0  0  0  0  0  0  0  0  0  0  0
  164.7900  193.4367  171.0380 H   0  0  0  0  0  0  0  0  0  0  0  0
  166.4106  192.9173  170.4505 H   0  0  0  0  0  0  0  0  0  0  0  0
  167.4754  191.2325  173.9713 H   0  0  0  0  0  0  0  0  0  0  0  0
  168.0594  191.3142  175.6788 H   0  0  0  0  0  0  0  0  0  0  0  0
  166.1675  189.3505  173.2850 H   0  0  0  0  0  0  0  0  0  0  0  0
  167.8895  188.9523  173.5147 H   0  0  0  0  0  0  0  0  0  0  0  0
  166.3950  187.3825  175.4206 H   0  0  0  0  0  0  0  0  0  0  0  0
  165.5563  187.2326  173.8389 H   0  0  0  0  0  0  0  0  0  0  0  0
  168.5180  186.8650  174.0890 H   0  0  0  0  0  0  0  0  0  0  0  0
  167.5240  186.3620  172.8520 H   0  0  0  0  0  0  0  0  0  0  0  0
  167.4790  185.6310  174.3370 H   0  0  0  0  0  0  0  0  0  0  0  0
  166.4640  191.8020  177.4260 H   0  0  0  0  0  0  0  0  0  0  0  0
  165.5239  192.8167  179.2147 H   0  0  0  0  0  0  0  0  0  0  0  0
  163.9633  193.6935  179.0651 H   0  0  0  0  0  0  0  0  0  0  0  0
  163.9880  191.8973  179.0651 H   0  0  0  0  0  0  0  0  0  0  0  0
  159.6153  192.9023  176.2437 H   0  0  0  0  0  0  0  0  0  0  0  0
  160.7382  193.9026  175.2612 H   0  0  0  0  0  0  0  0  0  0  0  0
  160.8955  192.1132  175.2612 H   0  0  0  0  0  0  0  0  0  0  0  0
  163.0708  192.7666  174.4820 H   0  0  0  0  0  0  0  0  0  0  0  0
  165.7344  195.2927  175.4092 H   0  0  0  0  0  0  0  0  0  0  0  0
  165.8618  197.5641  174.4102 H   0  0  0  0  0  0  0  0  0  0  0  0
  164.2308  198.2544  172.6567 H   0  0  0  0  0  0  0  0  0  0  0  0
  162.4764  196.6562  171.8951 H   0  0  0  0  0  0  0  0  0  0  0  0
  1  2  1  0
  2  3  1  0
  3  4  1  0
  4  5  2  0
  4  6  1  0
  6  7  2  0
  7  8  1  0
  8  9  1  0
  9 10  1  0
 10 11  1  0
 11 12  1  0
  7 13  1  0
 13 14  1  0
 14 15  1  0
 14 16  2  0
 16 17  1  0
 17 18  2  0
 17 19  1  0
 19 20  1  0
 16 21  1  0
 21 22  1  0
 22 23  2  0
 23 24  1  0
 24 25  2  0
 25 26  1  0
 26 27  2  0
 27 28  1  0
 21  6  1  0
 27 22  1  0
  1 29  1  0
  1 30  1  0
  1 31  1  0
  2 32  1  0
  2 33  1  0
  8 34  1  0
  8 35  1  0
 10 36  1  0
 10 37  1  0
 11 38  1  0
 11 39  1  0
 12 40  1  0
 12 41  1  0
 12 42  1  0
 13 43  1  0
 15 44  1  0
 15 45  1  0
 15 46  1  0
 20 47  1  0
 20 48  1  0
 20 49  1  0
 21 50  1  0
 23 51  1  0
 24 52  1  0
 25 53  1  0
 26 54  1  0
M  CHG  1  12   1
M  END
>  <meeko>  (1) 
{"is_sidechain": false}

>  <vina_kcal_mol>  (1) 
-6.381

$$$$
