diltiazem
     RDKit          3D

 56 58  0  0  0  0  0  0  0  0999 V2000
  165.8770  188.1110  168.8320 C   0  0  0  0  0  0  0  0  0  0  0  0
  165.5410  189.4890  168.6920 O   0  0  0  0  0  0  0  0  0  0  0  0
  165.2300  190.1720  169.8360 C   0  0  0  0  0  0  0  0  0  0  0  0
  164.3180  191.2140  169.6680 C   0  0  0  0  0  0  0  0  0  0  0  0
  163.9070  191.9900  170.7550 C   0  0  0  0  0  0  0  0  0  0  0  0
  164.4060  191.7400  172.0410 C   0  0  0  0  0  0  0  0  0  0  0  0
  163.9720  192.5450  173.2610 C   0  0  2  0  0  0  0  0  0  0  0  0
  162.8300  193.9080  172.8190 S   0  0  0  0  0  0  0  0  0  0  0  0
  161.7160  193.5700  174.1680 C   0  0  0  0  0  0  0  0  0  0  0  0
  160.3870  193.2800  173.8280 C   0  0  0  0  0  0  0  0  0  0  0  0
  159.4830  192.8560  174.7990 C   0  0  0  0  0  0  0  0  0  0  0  0
  159.9050  192.7140  176.1160 C   0  0  0  0  0  0  0  0  0  0  0  0
  161.2190  193.0220  176.4670 C   0  0  0  0  0  0  0  0  0  0  0  0
  162.1440  193.4790  175.5090 C   0  0  0  0  0  0  0  0  0  0  0  0
  163.4340  193.9250  175.9560 N   0  0  0  0  0  0  0  0  0  0  0  0
  163.5000  195.3580  176.3500 C   0  0  0  0  0  0  0  0  0  0  0  0
  163.5160  195.5880  177.8820 C   0  0  0  0  0  0  0  0  0  0  0  0
  164.9220  195.6780  178.4470 N   0  0  0  0  0  0  0  0  0  0  0  0
  165.8450  196.4610  177.5610 C   0  0  0  0  0  0  0  0  0  0  0  0
  164.9760  196.1350  179.8690 C   0  0  0  0  0  0  0  0  0  0  0  0
  164.6560  193.3030  175.6730 C   0  0  0  0  0  0  0  0  0  0  0  0
  165.3470  192.9000  176.6260 O   0  0  0  0  0  0  0  0  0  0  0  0
  165.0860  193.0100  174.2130 C   0  0  2  0  0  0  0  0  0  0  0  0
  165.6840  194.2200  173.6890 O   0  0  0  0  0  0  0  0  0  0  0  0
  166.7840  194.0490  172.9100 C   0  0  0  0  0  0  0  0  0  0  0  0
  166.5300  194.6070  171.5460 C   0  0  0  0  0  0  0  0  0  0  0  0
  167.8270  193.5280  173.2740 O   0  0  0  0  0  0  0  0  0  0  0  0
  165.3350  190.6960  172.1980 C   0  0  0  0  0  0  0  0  0  0  0  0
  165.7440  189.9200  171.1060 C   0  0  0  0  0  0  0  0  0  0  0  0
  165.9393  187.8555  169.9001 H   0  0  0  0  0  0  0  0  0  0  0  0
  165.1029  187.4942  168.3520 H   0  0  0  0  0  0  0  0  0  0  0  0
  166.8481  187.9198  168.3520 H   0  0  0  0  0  0  0  0  0  0  0  0
  163.9169  191.4278  168.6663 H   0  0  0  0  0  0  0  0  0  0  0  0
  163.1848  192.8051  170.6001 H   0  0  0  0  0  0  0  0  0  0  0  0
  163.4220  191.8063  173.8625 H   0  0  0  0  0  0  0  0  0  0  0  0
  160.0553  193.3883  172.7848 H   0  0  0  0  0  0  0  0  0  0  0  0
  158.4408  192.6347  174.5253 H   0  0  0  0  0  0  0  0  0  0  0  0
  159.2011  192.3580  176.8826 H   0  0  0  0  0  0  0  0  0  0  0  0
  161.5391  192.9056  177.5129 H   0  0  0  0  0  0  0  0  0  0  0  0
  164.4170  195.7921  175.9251 H   0  0  0  0  0  0  0  0  0  0  0  0
  162.5879  195.8373  175.9648 H   0  0  0  0  0  0  0  0  0  0  0  0
  162.9876  196.5273  178.1022 H   0  0  0  0  0  0  0  0  0  0  0  0
  163.0239  194.7240  178.3525 H   0  0  0  0  0  0  0  0  0  0  0  0
  165.2900  194.6990  178.4320 H   0  0  0  0  0  0  0  0  0  0  0  0
  166.5377  197.0487  178.1813 H   0  0  0  0  0  0  0  0  0  0  0  0
  166.4181  195.7694  176.9260 H   0  0  0  0  0  0  0  0  0  0  0  0
  165.2560  197.1392  176.9260 H   0  0  0  0  0  0  0  0  0  0  0  0
  164.8735  195.2672  180.5372 H   0  0  0  0  0  0  0  0  0  0  0  0
  165.9391  196.6317  180.0582 H   0  0  0  0  0  0  0  0  0  0  0  0
  164.1552  196.8425  180.0582 H   0  0  0  0  0  0  0  0  0  0  0  0
  165.7806  192.1583  174.2592 H   0  0  0  0  0  0  0  0  0  0  0  0
  166.0758  195.6047  171.6367 H   0  0  0  0  0  0  0  0  0  0  0  0
  167.4811  194.6854  170.9990 H   0  0  0  0  0  0  0  0  0  0  0  0
  165.8462  193.9412  170.9990 H   0  0  0  0  0  0  0  0  0  0  0  0
  165.7476  190.4851  173.1956 H   0  0  0  0  0  0  0  0  0  0  0  0
  166.4731  189.1093  171.2517 H   0  0  0  0  0  0  0  0  0  0  0  0
  1  2  1  0
  2  3  1  0
  3  4  1  0
  4  5  2  0
  5  6  1  0
  6  7  1  0
  7  8  1  0
  8  9  1  0
  9 10  2  0
 10 11  1  0
 11 12  2  0
 12 13  1  0
 13 14  2  0
 14 15  1  0
 15 16  1  0
 16 17  1  0
 17 18  1  0
 18 19  1  0
 18 20  1  0
 15 21  1  0
 21 22  2  0
 21 23  1  0
 23 24  1  0
 24 25  1  0
 25 26  1  0
 25 27  2  0
  6 28  2  0
 28 29  1  0
 29  3  2  0
 23  7  1  0
 14  9  1  0
  1 30  1  0
  1 31  1  0
  1 32  1  0
  4 33  1  0
  5 34  1  0
  7 35  1  1
 10 36  1  0
 11 37  1  0
 12 38  1  0
 13 39  1  0
 16 40  1  0
 16 41  1  0
 17 42  1  0
 17 43  1  0
 18 44  1  0
 19 45  1  0
 19 46  1  0
 19 47  1  0
 20 48  1  0
 20 49  1  0
 20 50  1  0
 23 51  1  1
 26 52  1  0
 26 53  1  0
 26 54  1  0
 28 55  1  0
 29 56  1  0
M  CHG  1  18   1
M  END
>  <meeko>  (1) 
{"is_sidechain": false}

>  <vina_kcal_mol>  (1) 
-6.151

$$$$
