felodipino
     RDKit          3D

 44 45  0  0  0  0  0  0  0  0999 V2000
  165.0260  195.7400  178.1460 C   0  0  0  0  0  0  0  0  0  0  0  0
  163.8900  196.6490  177.7190 C   0  0  0  0  0  0  0  0  0  0  0  0
  164.2140  197.2980  176.4830 O   0  0  0  0  0  0  0  0  0  0  0  0
  163.3920  197.0270  175.4410 C   0  0  0  0  0  0  0  0  0  0  0  0
  162.2150  197.3340  175.3450 O   0  0  0  0  0  0  0  0  0  0  0  0
  164.1510  196.2920  174.4060 C   0  0  0  0  0  0  0  0  0  0  0  0
  164.8440  196.9470  173.4470 C   0  0  0  0  0  0  0  0  0  0  0  0
  164.9680  198.4470  173.3520 C   0  0  0  0  0  0  0  0  0  0  0  0
  165.5270  196.2230  172.4840 N   0  0  0  0  0  0  0  0  0  0  0  0
  165.6220  194.8400  172.4550 C   0  0  0  0  0  0  0  0  0  0  0  0
  166.5130  194.2650  171.3830 C   0  0  0  0  0  0  0  0  0  0  0  0
  164.9580  194.1080  173.3780 C   0  0  0  0  0  0  0  0  0  0  0  0
  165.0170  192.6300  173.3730 C   0  0  0  0  0  0  0  0  0  0  0  0
  164.3690  191.9150  172.6250 O   0  0  0  0  0  0  0  0  0  0  0  0
  165.8920  192.2150  174.3190 O   0  0  0  0  0  0  0  0  0  0  0  0
  166.9710  191.4300  173.8080 C   0  0  0  0  0  0  0  0  0  0  0  0
  164.0840  194.7650  174.4480 C   0  0  0  0  0  0  0  0  0  0  0  0
  162.6280  194.2780  174.3400 C   0  0  0  0  0  0  0  0  0  0  0  0
  161.9180  194.5410  173.1480 C   0  0  0  0  0  0  0  0  0  0  0  0
  160.5960  194.1290  172.9840 C   0  0  0  0  0  0  0  0  0  0  0  0
  159.9540  193.4440  174.0100 C   0  0  0  0  0  0  0  0  0  0  0  0
  160.6310  193.1690  175.2000 C   0  0  0  0  0  0  0  0  0  0  0  0
  159.7500  192.3130  176.4210 Cl  0  0  0  0  0  0  0  0  0  0  0  0
  161.9650  193.5820  175.3750 C   0  0  0  0  0  0  0  0  0  0  0  0
  162.7800  193.2260  176.8670 Cl  0  0  0  0  0  0  0  0  0  0  0  0
  165.0727  195.7027  179.2444 H   0  0  0  0  0  0  0  0  0  0  0  0
  164.8536  194.7277  177.7517 H   0  0  0  0  0  0  0  0  0  0  0  0
  165.9759  196.1302  177.7517 H   0  0  0  0  0  0  0  0  0  0  0  0
  162.9761  196.0512  177.5869 H   0  0  0  0  0  0  0  0  0  0  0  0
  163.7301  197.4126  178.4945 H   0  0  0  0  0  0  0  0  0  0  0  0
  165.0035  198.8768  174.3639 H   0  0  0  0  0  0  0  0  0  0  0  0
  165.8906  198.7051  172.8114 H   0  0  0  0  0  0  0  0  0  0  0  0
  164.1004  198.8531  172.8114 H   0  0  0  0  0  0  0  0  0  0  0  0
  166.0630  196.7440  171.7950 H   0  0  0  0  0  0  0  0  0  0  0  0
  167.3492  193.7254  171.8517 H   0  0  0  0  0  0  0  0  0  0  0  0
  165.9329  193.5704  170.7576 H   0  0  0  0  0  0  0  0  0  0  0  0
  166.9069  195.0797  170.7576 H   0  0  0  0  0  0  0  0  0  0  0  0
  167.5478  191.0103  174.6454 H   0  0  0  0  0  0  0  0  0  0  0  0
  166.5695  190.6114  173.1926 H   0  0  0  0  0  0  0  0  0  0  0  0
  167.6263  192.0639  173.1926 H   0  0  0  0  0  0  0  0  0  0  0  0
  164.4888  194.4558  175.4230 H   0  0  0  0  0  0  0  0  0  0  0  0
  162.4184  195.0823  172.3316 H   0  0  0  0  0  0  0  0  0  0  0  0
  160.0628  194.3450  172.0464 H   0  0  0  0  0  0  0  0  0  0  0  0
  158.9109  193.1182  173.8839 H   0  0  0  0  0  0  0  0  0  0  0  0
  1  2  1  0
  2  3  1  0
  3  4  1  0
  4  5  2  0
  4  6  1  0
  6  7  2  0
  7  8  1  0
  7  9  1  0
  9 10  1  0
 10 11  1  0
 10 12  2  0
 12 13  1  0
 13 14  2  0
 13 15  1  0
 15 16  1  0
 12 17  1  0
 17 18  1  0
 18 19  2  0
 19 20  1  0
 20 21  2  0
 21 22  1  0
 22 23  1  0
 22 24  2  0
 24 25  1  0
 17  6  1  0
 24 18  1  0
  1 26  1  0
  1 27  1  0
  1 28  1  0
  2 29  1  0
  2 30  1  0
  8 31  1  0
  8 32  1  0
  8 33  1  0
  9 34  1  0
 11 35  1  0
 11 36  1  0
 11 37  1  0
 16 38  1  0
 16 39  1  0
 16 40  1  0
 17 41  1  0
 19 42  1  0
 20 43  1  0
 21 44  1  0
M  END
>  <meeko>  (1) 
{"is_sidechain": false}

>  <vina_kcal_mol>  (1) 
-6.913

$$$$
