isradipino
     RDKit          3D

 48 50  0  0  0  0  0  0  0  0999 V2000
  164.4310  195.0880  179.0090 C   0  0  0  0  0  0  0  0  0  0  0  0
  163.4750  194.0670  178.7270 O   0  0  0  0  0  0  0  0  0  0  0  0
  163.8140  193.2560  177.6940 C   0  0  0  0  0  0  0  0  0  0  0  0
  164.4930  192.2440  177.7950 O   0  0  0  0  0  0  0  0  0  0  0  0
  163.2180  193.7450  176.4250 C   0  0  0  0  0  0  0  0  0  0  0  0
  161.8870  193.6310  176.1990 C   0  0  0  0  0  0  0  0  0  0  0  0
  160.9350  192.8450  177.0650 C   0  0  0  0  0  0  0  0  0  0  0  0
  161.3170  194.2600  175.1010 N   0  0  0  0  0  0  0  0  0  0  0  0
  161.9860  195.1450  174.2720 C   0  0  0  0  0  0  0  0  0  0  0  0
  161.1280  195.9130  173.3000 C   0  0  0  0  0  0  0  0  0  0  0  0
  163.3210  195.2970  174.4080 C   0  0  0  0  0  0  0  0  0  0  0  0
  164.1260  196.2350  173.5990 C   0  0  0  0  0  0  0  0  0  0  0  0
  164.7540  197.1650  174.0810 O   0  0  0  0  0  0  0  0  0  0  0  0
  164.1330  195.8440  172.3020 O   0  0  0  0  0  0  0  0  0  0  0  0
  165.3270  196.1420  171.5560 C   0  0  0  0  0  0  0  0  0  0  0  0
  165.0520  197.2900  170.5920 C   0  0  0  0  0  0  0  0  0  0  0  0
  165.7080  194.8770  170.7980 C   0  0  0  0  0  0  0  0  0  0  0  0
  164.1120  194.5110  175.4500 C   0  0  0  0  0  0  0  0  0  0  0  0
  165.1400  193.6270  174.7510 C   0  0  0  0  0  0  0  0  0  0  0  0
  166.5190  193.6960  175.1030 C   0  0  0  0  0  0  0  0  0  0  0  0
  167.5400  192.9260  174.4860 C   0  0  0  0  0  0  0  0  0  0  0  0
  167.2890  192.0160  173.4500 C   0  0  0  0  0  0  0  0  0  0  0  0
  165.9390  191.9270  173.0650 C   0  0  0  0  0  0  0  0  0  0  0  0
  165.3880  191.1650  172.1120 N   0  0  0  0  0  0  0  0  0  0  0  0
  164.0370  191.4600  172.1330 O   0  0  0  0  0  0  0  0  0  0  0  0
  163.7290  192.4020  173.0950 N   0  0  0  0  0  0  0  0  0  0  0  0
  164.8840  192.7150  173.6960 C   0  0  0  0  0  0  0  0  0  0  0  0
  164.5366  195.2007  180.0981 H   0  0  0  0  0  0  0  0  0  0  0  0
  165.4023  194.8113  178.5732 H   0  0  0  0  0  0  0  0  0  0  0  0
  164.0911  196.0391  178.5732 H   0  0  0  0  0  0  0  0  0  0  0  0
  161.1628  193.0331  178.1246 H   0  0  0  0  0  0  0  0  0  0  0  0
  159.9021  193.1569  176.8511 H   0  0  0  0  0  0  0  0  0  0  0  0
  161.0457  191.7717  176.8511 H   0  0  0  0  0  0  0  0  0  0  0  0
  160.3070  194.1940  175.0010 H   0  0  0  0  0  0  0  0  0  0  0  0
  160.4208  196.5460  173.8560 H   0  0  0  0  0  0  0  0  0  0  0  0
  161.7675  196.5460  172.6672 H   0  0  0  0  0  0  0  0  0  0  0  0
  160.5694  195.2076  172.6672 H   0  0  0  0  0  0  0  0  0  0  0  0
  166.1496  196.4498  172.2182 H   0  0  0  0  0  0  0  0  0  0  0  0
  164.8330  198.2041  171.1634 H   0  0  0  0  0  0  0  0  0  0  0  0
  165.9357  197.4564  169.9584 H   0  0  0  0  0  0  0  0  0  0  0  0
  164.1888  197.0380  169.9584 H   0  0  0  0  0  0  0  0  0  0  0  0
  165.9486  194.0783  171.5151 H   0  0  0  0  0  0  0  0  0  0  0  0
  164.8653  194.5606  170.1658 H   0  0  0  0  0  0  0  0  0  0  0  0
  166.5853  195.0786  170.1658 H   0  0  0  0  0  0  0  0  0  0  0  0
  164.6545  195.2260  176.0860 H   0  0  0  0  0  0  0  0  0  0  0  0
  166.8114  194.3905  175.9043 H   0  0  0  0  0  0  0  0  0  0  0  0
  168.5751  193.0493  174.8371 H   0  0  0  0  0  0  0  0  0  0  0  0
  168.0831  191.4199  172.9765 H   0  0  0  0  0  0  0  0  0  0  0  0
  1  2  1  0
  2  3  1  0
  3  4  2  0
  3  5  1  0
  5  6  2  0
  6  7  1  0
  6  8  1  0
  8  9  1  0
  9 10  1  0
  9 11  2  0
 11 12  1  0
 12 13  2  0
 12 14  1  0
 14 15  1  0
 15 16  1  0
 15 17  1  0
 11 18  1  0
 18 19  1  0
 19 20  2  0
 20 21  1  0
 21 22  2  0
 22 23  1  0
 23 24  2  0
 24 25  1  0
 25 26  1  0
 26 27  2  0
 18  5  1  0
 27 19  1  0
 27 23  1  0
  1 28  1  0
  1 29  1  0
  1 30  1  0
  7 31  1  0
  7 32  1  0
  7 33  1  0
  8 34  1  0
 10 35  1  0
 10 36  1  0
 10 37  1  0
 15 38  1  0
 16 39  1  0
 16 40  1  0
 16 41  1  0
 17 42  1  0
 17 43  1  0
 17 44  1  0
 18 45  1  0
 20 46  1  0
 21 47  1  0
 22 48  1  0
M  END
>  <meeko>  (1) 
{"is_sidechain": false}

>  <vina_kcal_mol>  (1) 
-7.906

$$$$
