nicardipino
     RDKit          3D

 65 67  0  0  0  0  0  0  0  0999 V2000
  165.1410  197.7910  172.6770 C   0  0  0  0  0  0  0  0  0  0  0  0
  164.1620  197.1330  173.4830 O   0  0  0  0  0  0  0  0  0  0  0  0
  163.8680  195.8720  173.0800 C   0  0  0  0  0  0  0  0  0  0  0  0
  164.0090  195.4180  171.9550 O   0  0  0  0  0  0  0  0  0  0  0  0
  163.2570  195.1070  174.1870 C   0  0  0  0  0  0  0  0  0  0  0  0
  161.9240  194.9210  174.3150 C   0  0  0  0  0  0  0  0  0  0  0  0
  160.8850  195.4650  173.3660 C   0  0  0  0  0  0  0  0  0  0  0  0
  161.4320  194.2400  175.4190 N   0  0  0  0  0  0  0  0  0  0  0  0
  162.2020  193.8210  176.4920 C   0  0  0  0  0  0  0  0  0  0  0  0
  161.4330  193.2610  177.6620 C   0  0  0  0  0  0  0  0  0  0  0  0
  163.5460  193.9680  176.4430 C   0  0  0  0  0  0  0  0  0  0  0  0
  164.4520  193.5340  177.5230 C   0  0  0  0  0  0  0  0  0  0  0  0
  164.6230  192.3750  177.8680 O   0  0  0  0  0  0  0  0  0  0  0  0
  165.0190  194.6060  178.1400 O   0  0  0  0  0  0  0  0  0  0  0  0
  164.2170  195.1880  179.1780 C   0  0  0  0  0  0  0  0  0  0  0  0
  164.0790  196.7050  178.9910 C   0  0  0  0  0  0  0  0  0  0  0  0
  165.0360  197.5100  179.8410 N   0  0  0  0  0  0  0  0  0  0  0  0
  164.7880  198.9890  179.7870 C   0  0  0  0  0  0  0  0  0  0  0  0
  165.1740  196.9670  181.2540 C   0  0  0  0  0  0  0  0  0  0  0  0
  166.6130  196.7570  181.6430 C   0  0  0  0  0  0  0  0  0  0  0  0
  166.9430  196.4150  182.9650 C   0  0  0  0  0  0  0  0  0  0  0  0
  168.2720  196.1870  183.3220 C   0  0  0  0  0  0  0  0  0  0  0  0
  169.2810  196.2910  182.3670 C   0  0  0  0  0  0  0  0  0  0  0  0
  168.9650  196.6310  181.0530 C   0  0  0  0  0  0  0  0  0  0  0  0
  167.6380  196.8650  180.6900 C   0  0  0  0  0  0  0  0  0  0  0  0
  164.2390  194.5980  175.2340 C   0  0  0  0  0  0  0  0  0  0  0  0
  165.2570  193.6340  174.6090 C   0  0  0  0  0  0  0  0  0  0  0  0
  166.6320  193.8230  174.8430 C   0  0  0  0  0  0  0  0  0  0  0  0
  167.5830  192.9690  174.2760 C   0  0  0  0  0  0  0  0  0  0  0  0
  167.1770  191.9020  173.4770 C   0  0  0  0  0  0  0  0  0  0  0  0
  165.8130  191.7070  173.2360 C   0  0  0  0  0  0  0  0  0  0  0  0
  165.3740  190.5620  172.4320 N   0  0  0  0  0  0  0  0  0  0  0  0
  165.8740  189.4570  172.6820 O   0  0  0  0  0  0  0  0  0  0  0  0
  164.5010  190.7680  171.5770 O   0  0  0  0  0  0  0  0  0  0  0  0
  164.8540  192.5740  173.7800 C   0  0  0  0  0  0  0  0  0  0  0  0
  165.8779  198.2863  173.3264 H   0  0  0  0  0  0  0  0  0  0  0  0
  165.6505  197.0513  172.0420 H   0  0  0  0  0  0  0  0  0  0  0  0
  164.6485  198.5421  172.0420 H   0  0  0  0  0  0  0  0  0  0  0  0
  160.0545  195.8998  173.9416 H   0  0  0  0  0  0  0  0  0  0  0  0
  161.3380  196.2416  172.7322 H   0  0  0  0  0  0  0  0  0  0  0  0
  160.5048  194.6502  172.7322 H   0  0  0  0  0  0  0  0  0  0  0  0
  160.4190  194.1620  175.5000 H   0  0  0  0  0  0  0  0  0  0  0  0
  161.8965  193.5985  178.6008 H   0  0  0  0  0  0  0  0  0  0  0  0
  160.3921  193.6140  177.6194 H   0  0  0  0  0  0  0  0  0  0  0  0
  161.4495  192.1620  177.6194 H   0  0  0  0  0  0  0  0  0  0  0  0
  163.2163  194.7317  179.1562 H   0  0  0  0  0  0  0  0  0  0  0  0
  164.7091  195.0003  180.1437 H   0  0  0  0  0  0  0  0  0  0  0  0
  164.2680  196.9436  177.9339 H   0  0  0  0  0  0  0  0  0  0  0  0
  163.0609  196.9772  179.3062 H   0  0  0  0  0  0  0  0  0  0  0  0
  165.9630  197.3680  179.4190 H   0  0  0  0  0  0  0  0  0  0  0  0
  164.7212  199.3872  180.8102 H   0  0  0  0  0  0  0  0  0  0  0  0
  165.6163  199.4805  179.2556 H   0  0  0  0  0  0  0  0  0  0  0  0
  163.8447  199.1835  179.2556 H   0  0  0  0  0  0  0  0  0  0  0  0
  164.7181  197.6820  181.9546 H   0  0  0  0  0  0  0  0  0  0  0  0
  164.6673  195.9914  181.2925 H   0  0  0  0  0  0  0  0  0  0  0  0
  166.1498  196.3266  183.7220 H   0  0  0  0  0  0  0  0  0  0  0  0
  168.5240  195.9245  184.3601 H   0  0  0  0  0  0  0  0  0  0  0  0
  170.3275  196.1047  182.6502 H   0  0  0  0  0  0  0  0  0  0  0  0
  169.7630  196.7151  180.3006 H   0  0  0  0  0  0  0  0  0  0  0  0
  167.3940  197.1354  179.6520 H   0  0  0  0  0  0  0  0  0  0  0  0
  164.7806  195.4773  175.6128 H   0  0  0  0  0  0  0  0  0  0  0  0
  166.9635  194.6551  175.4816 H   0  0  0  0  0  0  0  0  0  0  0  0
  168.6538  193.1398  174.4611 H   0  0  0  0  0  0  0  0  0  0  0  0
  167.9215  191.2201  173.0403 H   0  0  0  0  0  0  0  0  0  0  0  0
  163.7872  192.4240  173.5577 H   0  0  0  0  0  0  0  0  0  0  0  0
  1  2  1  0
  2  3  1  0
  3  4  2  0
  3  5  1  0
  5  6  2  0
  6  7  1  0
  6  8  1  0
  8  9  1  0
  9 10  1  0
  9 11  2  0
 11 12  1  0
 12 13  2  0
 12 14  1  0
 14 15  1  0
 15 16  1  0
 16 17  1  0
 17 18  1  0
 17 19  1  0
 19 20  1  0
 20 21  2  0
 21 22  1  0
 22 23  2  0
 23 24  1  0
 24 25  2  0
 11 26  1  0
 26 27  1  0
 27 28  2  0
 28 29  1  0
 29 30  2  0
 30 31  1  0
 31 32  1  0
 32 33  2  0
 32 34  1  0
 31 35  2  0
 26  5  1  0
 35 27  1  0
 25 20  1  0
  1 36  1  0
  1 37  1  0
  1 38  1  0
  7 39  1  0
  7 40  1  0
  7 41  1  0
  8 42  1  0
 10 43  1  0
 10 44  1  0
 10 45  1  0
 15 46  1  0
 15 47  1  0
 16 48  1  0
 16 49  1  0
 17 50  1  0
 18 51  1  0
 18 52  1  0
 18 53  1  0
 19 54  1  0
 19 55  1  0
 21 56  1  0
 22 57  1  0
 23 58  1  0
 24 59  1  0
 25 60  1  0
 26 61  1  0
 28 62  1  0
 29 63  1  0
 30 64  1  0
 35 65  1  0
M  CHG  3  17   1  32   1  34  -1
M  END
>  <meeko>  (1) 
{"is_sidechain": false}

>  <vina_kcal_mol>  (1) 
-8.348

$$$$
