nifedipino
     RDKit          3D

 43 44  0  0  0  0  0  0  0  0999 V2000
  164.4350  196.2290  179.9330 C   0  0  0  0  0  0  0  0  0  0  0  0
  164.1980  196.1360  178.5290 O   0  0  0  0  0  0  0  0  0  0  0  0
  163.3440  195.1430  178.1810 C   0  0  0  0  0  0  0  0  0  0  0  0
  162.1750  195.0400  178.5180 O   0  0  0  0  0  0  0  0  0  0  0  0
  164.0250  194.1970  177.2730 C   0  0  0  0  0  0  0  0  0  0  0  0
  164.5140  193.0300  177.7480 C   0  0  0  0  0  0  0  0  0  0  0  0
  164.2950  192.5100  179.1470 C   0  0  0  0  0  0  0  0  0  0  0  0
  165.2900  192.2270  176.9240 N   0  0  0  0  0  0  0  0  0  0  0  0
  165.7810  192.6280  175.6890 C   0  0  0  0  0  0  0  0  0  0  0  0
  166.8540  191.7490  175.0960 C   0  0  0  0  0  0  0  0  0  0  0  0
  165.3260  193.7730  175.1310 C   0  0  0  0  0  0  0  0  0  0  0  0
  165.7730  194.3090  173.8250 C   0  0  0  0  0  0  0  0  0  0  0  0
  166.3430  195.3840  173.7110 O   0  0  0  0  0  0  0  0  0  0  0  0
  165.3700  193.5130  172.8040 O   0  0  0  0  0  0  0  0  0  0  0  0
  164.6760  194.2100  171.7700 C   0  0  0  0  0  0  0  0  0  0  0  0
  164.2880  194.6530  175.8410 C   0  0  0  0  0  0  0  0  0  0  0  0
  163.0000  194.7190  175.0070 C   0  0  0  0  0  0  0  0  0  0  0  0
  162.3660  193.5100  174.6400 C   0  0  0  0  0  0  0  0  0  0  0  0
  161.2170  193.5010  173.8440 C   0  0  0  0  0  0  0  0  0  0  0  0
  160.6670  194.6970  173.3910 C   0  0  0  0  0  0  0  0  0  0  0  0
  161.2630  195.9070  173.7380 C   0  0  0  0  0  0  0  0  0  0  0  0
  162.4160  195.9150  174.5430 C   0  0  0  0  0  0  0  0  0  0  0  0
  162.9500  197.2280  174.8920 N   0  0  0  0  0  0  0  0  0  0  0  0
  163.8250  197.7030  174.1550 O   0  0  0  0  0  0  0  0  0  0  0  0
  162.5350  197.7480  175.9380 O   0  0  0  0  0  0  0  0  0  0  0  0
  163.5460  195.8801  180.4788 H   0  0  0  0  0  0  0  0  0  0  0  0
  165.2990  195.6032  180.2013 H   0  0  0  0  0  0  0  0  0  0  0  0
  164.6428  197.2754  180.2013 H   0  0  0  0  0  0  0  0  0  0  0  0
  164.6151  193.2700  179.8750 H   0  0  0  0  0  0  0  0  0  0  0  0
  163.2274  192.2890  179.2931 H   0  0  0  0  0  0  0  0  0  0  0  0
  164.8828  191.5918  179.2931 H   0  0  0  0  0  0  0  0  0  0  0  0
  165.7450  191.4280  177.3670 H   0  0  0  0  0  0  0  0  0  0  0  0
  167.4302  191.2770  175.9055 H   0  0  0  0  0  0  0  0  0  0  0  0
  166.3880  190.9697  174.4751 H   0  0  0  0  0  0  0  0  0  0  0  0
  167.5263  192.3593  174.4751 H   0  0  0  0  0  0  0  0  0  0  0  0
  163.9675  194.9216  172.2191 H   0  0  0  0  0  0  0  0  0  0  0  0
  165.3992  194.7566  171.1469 H   0  0  0  0  0  0  0  0  0  0  0  0
  164.1263  193.4891  171.1469 H   0  0  0  0  0  0  0  0  0  0  0  0
  164.6986  195.6702  175.9232 H   0  0  0  0  0  0  0  0  0  0  0  0
  162.7862  192.5550  174.9886 H   0  0  0  0  0  0  0  0  0  0  0  0
  160.7452  192.5446  173.5743 H   0  0  0  0  0  0  0  0  0  0  0  0
  159.7651  194.6864  172.7614 H   0  0  0  0  0  0  0  0  0  0  0  0
  160.8325  196.8549  173.3829 H   0  0  0  0  0  0  0  0  0  0  0  0
  1  2  1  0
  2  3  1  0
  3  4  2  0
  3  5  1  0
  5  6  2  0
  6  7  1  0
  6  8  1  0
  8  9  1  0
  9 10  1  0
  9 11  2  0
 11 12  1  0
 12 13  2  0
 12 14  1  0
 14 15  1  0
 11 16  1  0
 16 17  1  0
 17 18  2  0
 18 19  1  0
 19 20  2  0
 20 21  1  0
 21 22  2  0
 22 23  1  0
 23 24  2  0
 23 25  1  0
 16  5  1  0
 22 17  1  0
  1 26  1  0
  1 27  1  0
  1 28  1  0
  7 29  1  0
  7 30  1  0
  7 31  1  0
  8 32  1  0
 10 33  1  0
 10 34  1  0
 10 35  1  0
 15 36  1  0
 15 37  1  0
 15 38  1  0
 16 39  1  0
 18 40  1  0
 19 41  1  0
 20 42  1  0
 21 43  1  0
M  CHG  2  23   1  25  -1
M  END
>  <meeko>  (1) 
{"is_sidechain": false}

>  <vina_kcal_mol>  (1) 
-7.165

$$$$
