nitrendipino
     RDKit          3D

 46 47  0  0  0  0  0  0  0  0999 V2000
  165.4610  194.1180  170.4530 C   0  0  0  0  0  0  0  0  0  0  0  0
  165.2200  195.4050  171.2160 C   0  0  0  0  0  0  0  0  0  0  0  0
  164.0010  195.2630  171.9530 O   0  0  0  0  0  0  0  0  0  0  0  0
  163.9570  195.9960  173.0940 C   0  0  0  0  0  0  0  0  0  0  0  0
  164.4410  197.1050  173.2600 O   0  0  0  0  0  0  0  0  0  0  0  0
  163.3110  195.2210  174.1730 C   0  0  0  0  0  0  0  0  0  0  0  0
  161.9750  195.0250  174.2600 C   0  0  0  0  0  0  0  0  0  0  0  0
  160.9610  195.5880  173.2990 C   0  0  0  0  0  0  0  0  0  0  0  0
  161.4600  194.2990  175.3240 N   0  0  0  0  0  0  0  0  0  0  0  0
  162.2090  193.8490  176.4040 C   0  0  0  0  0  0  0  0  0  0  0  0
  161.4230  193.2620  177.5480 C   0  0  0  0  0  0  0  0  0  0  0  0
  163.5520  194.0050  176.3920 C   0  0  0  0  0  0  0  0  0  0  0  0
  164.4380  193.5840  177.4970 C   0  0  0  0  0  0  0  0  0  0  0  0
  164.5790  192.4200  177.8390 O   0  0  0  0  0  0  0  0  0  0  0  0
  164.9810  194.6690  178.1050 O   0  0  0  0  0  0  0  0  0  0  0  0
  164.2220  195.1450  179.2170 C   0  0  0  0  0  0  0  0  0  0  0  0
  164.2700  194.6780  175.2270 C   0  0  0  0  0  0  0  0  0  0  0  0
  165.2990  193.7310  174.5950 C   0  0  0  0  0  0  0  0  0  0  0  0
  166.6800  193.9510  174.7500 C   0  0  0  0  0  0  0  0  0  0  0  0
  167.6120  193.0860  174.1730 C   0  0  0  0  0  0  0  0  0  0  0  0
  167.1820  191.9880  173.4310 C   0  0  0  0  0  0  0  0  0  0  0  0
  165.8100  191.7580  173.2700 C   0  0  0  0  0  0  0  0  0  0  0  0
  165.3550  190.6000  172.4900 N   0  0  0  0  0  0  0  0  0  0  0  0
  165.9370  189.5210  172.6600 O   0  0  0  0  0  0  0  0  0  0  0  0
  164.4110  190.7720  171.7040 O   0  0  0  0  0  0  0  0  0  0  0  0
  164.8680  192.6230  173.8470 C   0  0  0  0  0  0  0  0  0  0  0  0
  165.6154  193.2934  171.1645 H   0  0  0  0  0  0  0  0  0  0  0  0
  164.5885  193.8979  169.8204 H   0  0  0  0  0  0  0  0  0  0  0  0
  166.3541  194.2285  169.8204 H   0  0  0  0  0  0  0  0  0  0  0  0
  166.0548  195.5902  171.9080 H   0  0  0  0  0  0  0  0  0  0  0  0
  165.1478  196.2533  170.5195 H   0  0  0  0  0  0  0  0  0  0  0  0
  160.1357  196.0462  173.8636 H   0  0  0  0  0  0  0  0  0  0  0  0
  161.4394  196.3497  172.6658 H   0  0  0  0  0  0  0  0  0  0  0  0
  160.5674  194.7792  172.6658 H   0  0  0  0  0  0  0  0  0  0  0  0
  160.4470  194.2390  175.4020 H   0  0  0  0  0  0  0  0  0  0  0  0
  161.8625  193.5903  178.5014 H   0  0  0  0  0  0  0  0  0  0  0  0
  160.3790  193.6032  177.4888 H   0  0  0  0  0  0  0  0  0  0  0  0
  161.4538  192.1640  177.4888 H   0  0  0  0  0  0  0  0  0  0  0  0
  164.7113  194.8382  180.1532 H   0  0  0  0  0  0  0  0  0  0  0  0
  164.1622  196.2427  179.1772 H   0  0  0  0  0  0  0  0  0  0  0  0
  163.2078  194.7209  179.1772 H   0  0  0  0  0  0  0  0  0  0  0  0
  164.8003  195.5458  175.6460 H   0  0  0  0  0  0  0  0  0  0  0  0
  167.0300  194.8155  175.3332 H   0  0  0  0  0  0  0  0  0  0  0  0
  168.6882  193.2719  174.3046 H   0  0  0  0  0  0  0  0  0  0  0  0
  167.9151  191.3065  172.9748 H   0  0  0  0  0  0  0  0  0  0  0  0
  163.7927  192.4336  173.7137 H   0  0  0  0  0  0  0  0  0  0  0  0
  1  2  1  0
  2  3  1  0
  3  4  1  0
  4  5  2  0
  4  6  1  0
  6  7  2  0
  7  8  1  0
  7  9  1  0
  9 10  1  0
 10 11  1  0
 10 12  2  0
 12 13  1  0
 13 14  2  0
 13 15  1  0
 15 16  1  0
 12 17  1  0
 17 18  1  0
 18 19  2  0
 19 20  1  0
 20 21  2  0
 21 22  1  0
 22 23  1  0
 23 24  2  0
 23 25  1  0
 22 26  2  0
 17  6  1  0
 26 18  1  0
  1 27  1  0
  1 28  1  0
  1 29  1  0
  2 30  1  0
  2 31  1  0
  8 32  1  0
  8 33  1  0
  8 34  1  0
  9 35  1  0
 11 36  1  0
 11 37  1  0
 11 38  1  0
 16 39  1  0
 16 40  1  0
 16 41  1  0
 17 42  1  0
 19 43  1  0
 20 44  1  0
 21 45  1  0
 26 46  1  0
M  CHG  2  23   1  25  -1
M  END
>  <meeko>  (1) 
{"is_sidechain": false}

>  <vina_kcal_mol>  (1) 
-7.044

$$$$
