verapamilo
     RDKit          3D

 72 73  0  0  0  0  0  0  0  0999 V2000
  162.4190  203.4370  172.1100 C   0  0  0  0  0  0  0  0  0  0  0  0
  163.6590  203.2380  171.4490 O   0  0  0  0  0  0  0  0  0  0  0  0
  164.0150  201.9540  171.1350 C   0  0  0  0  0  0  0  0  0  0  0  0
  163.5800  201.2520  170.0100 C   0  0  0  0  0  0  0  0  0  0  0  0
  164.0220  199.9440  169.7750 C   0  0  0  0  0  0  0  0  0  0  0  0
  164.9100  199.3150  170.6580 C   0  0  0  0  0  0  0  0  0  0  0  0
  165.4250  197.9260  170.3810 C   0  0  0  0  0  0  0  0  0  0  0  0
  166.5350  197.5490  171.3690 C   0  0  0  0  0  0  0  0  0  0  0  0
  166.4360  196.0950  171.7920 N   0  0  0  0  0  0  0  0  0  0  0  0
  165.7910  195.1970  170.7610 C   0  0  0  0  0  0  0  0  0  0  0  0
  165.8450  195.9090  173.1830 C   0  0  0  0  0  0  0  0  0  0  0  0
  164.3510  196.2330  173.2310 C   0  0  0  0  0  0  0  0  0  0  0  0
  163.5090  195.5170  174.3240 C   0  0  0  0  0  0  0  0  0  0  0  0
  162.6970  194.2150  173.9540 C   0  0  0  0  0  0  0  0  0  0  0  0
  162.2650  193.6390  175.2680 C   0  0  0  0  0  0  0  0  0  0  0  0
  162.0330  193.2210  176.3260 N   0  0  0  0  0  0  0  0  0  0  0  0
  163.5490  193.1840  173.1760 C   0  0  0  0  0  0  0  0  0  0  0  0
  163.1870  192.7590  171.8820 C   0  0  0  0  0  0  0  0  0  0  0  0
  163.9070  191.7640  171.2070 C   0  0  0  0  0  0  0  0  0  0  0  0
  165.0320  191.1840  171.7920 C   0  0  0  0  0  0  0  0  0  0  0  0
  165.7350  190.1440  171.2500 O   0  0  0  0  0  0  0  0  0  0  0  0
  165.5050  189.8780  169.8710 C   0  0  0  0  0  0  0  0  0  0  0  0
  165.4440  191.6470  173.0440 C   0  0  0  0  0  0  0  0  0  0  0  0
  166.5150  191.1060  173.7120 O   0  0  0  0  0  0  0  0  0  0  0  0
  166.8060  191.8660  174.8910 C   0  0  0  0  0  0  0  0  0  0  0  0
  164.7240  192.6370  173.7190 C   0  0  0  0  0  0  0  0  0  0  0  0
  161.3820  194.5500  173.1370 C   0  0  0  0  0  0  0  0  0  0  0  0
  160.2400  193.5420  173.3770 C   0  0  0  0  0  0  0  0  0  0  0  0
  160.8190  195.9610  173.3730 C   0  0  0  0  0  0  0  0  0  0  0  0
  165.3360  200.0130  171.7930 C   0  0  0  0  0  0  0  0  0  0  0  0
  164.8790  201.3110  172.0330 C   0  0  0  0  0  0  0  0  0  0  0  0
  165.3730  201.9560  173.1390 O   0  0  0  0  0  0  0  0  0  0  0  0
  166.8020  201.9530  173.1240 C   0  0  0  0  0  0  0  0  0  0  0  0
  162.5756  203.4119  173.1985 H   0  0  0  0  0  0  0  0  0  0  0  0
  162.0025  204.4135  171.8219 H   0  0  0  0  0  0  0  0  0  0  0  0
  161.7179  202.6399  171.8219 H   0  0  0  0  0  0  0  0  0  0  0  0
  162.8853  201.7292  169.3031 H   0  0  0  0  0  0  0  0  0  0  0  0
  163.6673  199.4031  168.8853 H   0  0  0  0  0  0  0  0  0  0  0  0
  164.5969  197.2085  170.4781 H   0  0  0  0  0  0  0  0  0  0  0  0
  165.8371  197.8999  169.3614 H   0  0  0  0  0  0  0  0  0  0  0  0
  167.5111  197.7158  170.8900 H   0  0  0  0  0  0  0  0  0  0  0  0
  166.4252  198.1765  172.2658 H   0  0  0  0  0  0  0  0  0  0  0  0
  167.4030  195.7540  171.8870 H   0  0  0  0  0  0  0  0  0  0  0  0
  165.2219  194.4047  171.2694 H   0  0  0  0  0  0  0  0  0  0  0  0
  165.1114  195.7904  170.1317 H   0  0  0  0  0  0  0  0  0  0  0  0
  166.5703  194.7425  170.1317 H   0  0  0  0  0  0  0  0  0  0  0  0
  165.9895  194.8629  173.4910 H   0  0  0  0  0  0  0  0  0  0  0  0
  166.3605  196.6045  173.8617 H   0  0  0  0  0  0  0  0  0  0  0  0
  164.2513  197.3166  173.3920 H   0  0  0  0  0  0  0  0  0  0  0  0
  163.9483  195.8676  172.2748 H   0  0  0  0  0  0  0  0  0  0  0  0
  164.2024  195.2422  175.1325 H   0  0  0  0  0  0  0  0  0  0  0  0
  162.7247  196.2495  174.5656 H   0  0  0  0  0  0  0  0  0  0  0  0
  162.3178  193.2196  171.3897 H   0  0  0  0  0  0  0  0  0  0  0  0
  163.5821  191.4381  170.2079 H   0  0  0  0  0  0  0  0  0  0  0  0
  164.7885  189.0493  169.7720 H   0  0  0  0  0  0  0  0  0  0  0  0
  165.0950  190.7770  169.3876 H   0  0  0  0  0  0  0  0  0  0  0  0
  166.4538  189.6021  169.3876 H   0  0  0  0  0  0  0  0  0  0  0  0
  166.5753  191.2634  175.7819 H   0  0  0  0  0  0  0  0  0  0  0  0
  167.8718  192.1379  174.8982 H   0  0  0  0  0  0  0  0  0  0  0  0
  166.1943  192.7802  174.8982 H   0  0  0  0  0  0  0  0  0  0  0  0
  165.0844  192.9950  174.6947 H   0  0  0  0  0  0  0  0  0  0  0  0
  161.7311  194.4836  172.0960 H   0  0  0  0  0  0  0  0  0  0  0  0
  160.0895  193.4091  174.4585 H   0  0  0  0  0  0  0  0  0  0  0  0
  159.3136  193.9223  172.9218 H   0  0  0  0  0  0  0  0  0  0  0  0
  160.5023  192.5756  172.9218 H   0  0  0  0  0  0  0  0  0  0  0  0
  160.7437  196.1496  174.4541 H   0  0  0  0  0  0  0  0  0  0  0  0
  161.4894  196.7043  172.9169 H   0  0  0  0  0  0  0  0  0  0  0  0
  159.8210  196.0386  172.9169 H   0  0  0  0  0  0  0  0  0  0  0  0
  166.0332  199.5381  172.4989 H   0  0  0  0  0  0  0  0  0  0  0  0
  167.1795  201.9522  174.1572 H   0  0  0  0  0  0  0  0  0  0  0  0
  167.1613  201.0541  172.6016 H   0  0  0  0  0  0  0  0  0  0  0  0
  167.1651  202.8504  172.6016 H   0  0  0  0  0  0  0  0  0  0  0  0
  1  2  1  0
  2  3  1  0
  3  4  1  0
  4  5  2  0
  5  6  1  0
  6  7  1  0
  7  8  1  0
  8  9  1  0
  9 10  1  0
  9 11  1  0
 11 12  1  0
 12 13  1  0
 13 14  1  0
 14 15  1  0
 15 16  3  0
 14 17  1  0
 17 18  1  0
 18 19  2  0
 19 20  1  0
 20 21  1  0
 21 22  1  0
 20 23  2  0
 23 24  1  0
 24 25  1  0
 23 26  1  0
 14 27  1  0
 27 28  1  0
 27 29  1  0
  6 30  2  0
 30 31  1  0
 31 32  1  0
 32 33  1  0
 31  3  2  0
 26 17  2  0
  1 34  1  0
  1 35  1  0
  1 36  1  0
  4 37  1  0
  5 38  1  0
  7 39  1  0
  7 40  1  0
  8 41  1  0
  8 42  1  0
  9 43  1  0
 10 44  1  0
 10 45  1  0
 10 46  1  0
 11 47  1  0
 11 48  1  0
 12 49  1  0
 12 50  1  0
 13 51  1  0
 13 52  1  0
 18 53  1  0
 19 54  1  0
 22 55  1  0
 22 56  1  0
 22 57  1  0
 25 58  1  0
 25 59  1  0
 25 60  1  0
 26 61  1  0
 27 62  1  0
 28 63  1  0
 28 64  1  0
 28 65  1  0
 29 66  1  0
 29 67  1  0
 29 68  1  0
 30 69  1  0
 33 70  1  0
 33 71  1  0
 33 72  1  0
M  CHG  1   9   1
M  END
>  <meeko>  (1) 
{"is_sidechain": false}

>  <vina_kcal_mol>  (1) 
-7.332

$$$$
