pose 1
     RDKit          3D

 19 19  0  0  0  0  0  0  0  0999 V2000
   -6.2290    1.9060   18.4230 C   0  0  0  0  0  0  0  0  0  0  0  0
   -6.1270    1.2990   17.0440 C   0  0  0  0  0  0  0  0  0  0  0  0
   -6.8590    0.3710   16.7200 O   0  0  0  0  0  0  0  0  0  0  0  0
   -5.1820    1.9220   16.2640 N   0  0  0  0  0  0  0  0  0  0  0  0
   -4.8500    1.6120   14.9690 C   0  0  0  0  0  0  0  0  0  0  0  0
   -4.3110    0.4530   14.6470 N   0  0  0  0  0  0  0  0  0  0  0  0
   -4.0590    0.3540   13.2910 N   0  0  0  0  0  0  0  0  0  0  0  0
   -4.4270    1.4540   12.6660 C   0  0  0  0  0  0  0  0  0  0  0  0
   -4.2800    1.7330   10.9350 S   0  0  0  0  0  0  0  0  0  0  0  0
   -5.0010    0.4230   10.1450 N   0  0  0  0  0  0  0  0  0  0  0  0
   -5.0960    2.8890   10.6460 O   0  0  0  0  0  0  0  0  0  0  0  0
   -2.8670    1.6660   10.6390 O   0  0  0  0  0  0  0  0  0  0  0  0
   -5.0940    2.6680   13.6510 S   0  0  0  0  0  0  0  0  0  0  0  0
   -6.0968    1.1194   19.1805 H   0  0  0  0  0  0  0  0  0  0  0  0
   -5.4465    2.6692   18.5465 H   0  0  0  0  0  0  0  0  0  0  0  0
   -7.2180    2.3715   18.5465 H   0  0  0  0  0  0  0  0  0  0  0  0
   -4.6570    2.7000   16.6390 H   0  0  0  0  0  0  0  0  0  0  0  0
   -6.0060    0.5590   10.0410 H   0  0  0  0  0  0  0  0  0  0  0  0
   -4.7490   -0.4610   10.5880 H   0  0  0  0  0  0  0  0  0  0  0  0
  1  2  1  0
  2  3  2  0
  2  4  1  0
  4  5  1  0
  5  6  2  0
  6  7  1  0
  7  8  2  0
  8  9  1  0
  9 10  1  0
  9 11  2  0
  9 12  2  0
  8 13  1  0
 13  5  1  0
  1 14  1  0
  1 15  1  0
  1 16  1  0
  4 17  1  0
 10 18  1  0
 10 19  1  0
M  END
>  <meeko>  (1) 
{"is_sidechain": false}

>  <vina_kcal_mol>  (1) 
-6.663

>  <rmsd_cristal>  (1) 
5.32

$$$$
pose 2
     RDKit          3D

 19 19  0  0  0  0  0  0  0  0999 V2000
   -4.0310    4.4340   10.6670 C   0  0  0  0  0  0  0  0  0  0  0  0
   -4.5590    3.2890   11.4970 C   0  0  0  0  0  0  0  0  0  0  0  0
   -5.2430    2.4130   10.9810 O   0  0  0  0  0  0  0  0  0  0  0  0
   -4.1570    3.3630   12.8100 N   0  0  0  0  0  0  0  0  0  0  0  0
   -4.4630    2.4790   13.8150 C   0  0  0  0  0  0  0  0  0  0  0  0
   -3.9370    1.2720   13.8630 N   0  0  0  0  0  0  0  0  0  0  0  0
   -4.3800    0.5530   14.9570 N   0  0  0  0  0  0  0  0  0  0  0  0
   -5.2220    1.2680   15.6760 C   0  0  0  0  0  0  0  0  0  0  0  0
   -6.0130    0.7230   17.1500 S   0  0  0  0  0  0  0  0  0  0  0  0
   -7.6740    0.9750   16.9590 N   0  0  0  0  0  0  0  0  0  0  0  0
   -5.8160   -0.7070   17.2040 O   0  0  0  0  0  0  0  0  0  0  0  0
   -5.5770    1.6230   18.1930 O   0  0  0  0  0  0  0  0  0  0  0  0
   -5.5330    2.8350   15.0950 S   0  0  0  0  0  0  0  0  0  0  0  0
   -3.6640    5.2299   11.3316 H   0  0  0  0  0  0  0  0  0  0  0  0
   -3.2065    4.0771   10.0323 H   0  0  0  0  0  0  0  0  0  0  0  0
   -4.8377    4.8293   10.0323 H   0  0  0  0  0  0  0  0  0  0  0  0
   -3.5660    4.1260   13.1100 H   0  0  0  0  0  0  0  0  0  0  0  0
   -8.2110    0.1670   17.2730 H   0  0  0  0  0  0  0  0  0  0  0  0
   -7.8970    1.2740   16.0090 H   0  0  0  0  0  0  0  0  0  0  0  0
  1  2  1  0
  2  3  2  0
  2  4  1  0
  4  5  1  0
  5  6  2  0
  6  7  1  0
  7  8  2  0
  8  9  1  0
  9 10  1  0
  9 11  2  0
  9 12  2  0
  8 13  1  0
 13  5  1  0
  1 14  1  0
  1 15  1  0
  1 16  1  0
  4 17  1  0
 10 18  1  0
 10 19  1  0
M  END
>  <meeko>  (2) 
{"is_sidechain": false}

>  <vina_kcal_mol>  (2) 
-6.187

>  <rmsd_cristal>  (2) 
2.29

$$$$
pose 3
     RDKit          3D

 19 19  0  0  0  0  0  0  0  0999 V2000
   -5.7980    0.9750   17.4250 C   0  0  0  0  0  0  0  0  0  0  0  0
   -4.7450    1.2520   16.3780 C   0  0  0  0  0  0  0  0  0  0  0  0
   -3.7000    0.6130   16.3660 O   0  0  0  0  0  0  0  0  0  0  0  0
   -5.1290    2.2330   15.4950 N   0  0  0  0  0  0  0  0  0  0  0  0
   -4.4040    2.7130   14.4320 C   0  0  0  0  0  0  0  0  0  0  0  0
   -3.3840    3.5310   14.5990 N   0  0  0  0  0  0  0  0  0  0  0  0
   -2.7990    3.8870   13.3980 N   0  0  0  0  0  0  0  0  0  0  0  0
   -3.4190    3.3100   12.3880 C   0  0  0  0  0  0  0  0  0  0  0  0
   -2.9870    3.5000   10.6930 S   0  0  0  0  0  0  0  0  0  0  0  0
   -1.9750    2.2110   10.2780 N   0  0  0  0  0  0  0  0  0  0  0  0
   -4.2100    3.3210    9.9460 O   0  0  0  0  0  0  0  0  0  0  0  0
   -2.1810    4.6970   10.6190 O   0  0  0  0  0  0  0  0  0  0  0  0
   -4.7300    2.3120   12.8060 S   0  0  0  0  0  0  0  0  0  0  0  0
   -5.3584    1.0906   18.4267 H   0  0  0  0  0  0  0  0  0  0  0  0
   -6.6297    1.6849   17.3054 H   0  0  0  0  0  0  0  0  0  0  0  0
   -6.1727   -0.0523   17.3054 H   0  0  0  0  0  0  0  0  0  0  0  0
   -6.0350    2.6700   15.5940 H   0  0  0  0  0  0  0  0  0  0  0  0
   -2.5100    1.4130    9.9350 H   0  0  0  0  0  0  0  0  0  0  0  0
   -1.3360    1.9800   11.0400 H   0  0  0  0  0  0  0  0  0  0  0  0
  1  2  1  0
  2  3  2  0
  2  4  1  0
  4  5  1  0
  5  6  2  0
  6  7  1  0
  7  8  2  0
  8  9  1  0
  9 10  1  0
  9 11  2  0
  9 12  2  0
  8 13  1  0
 13  5  1  0
  1 14  1  0
  1 15  1  0
  1 16  1  0
  4 17  1  0
 10 18  1  0
 10 19  1  0
M  END
>  <meeko>  (3) 
{"is_sidechain": false}

>  <vina_kcal_mol>  (3) 
-6.118

>  <rmsd_cristal>  (3) 
5.71

$$$$
pose 4
     RDKit          3D

 19 19  0  0  0  0  0  0  0  0999 V2000
   -2.4570    0.7600   10.7890 C   0  0  0  0  0  0  0  0  0  0  0  0
   -3.5880    0.6260   11.7800 C   0  0  0  0  0  0  0  0  0  0  0  0
   -4.4700   -0.2050   11.6050 O   0  0  0  0  0  0  0  0  0  0  0  0
   -3.4640    1.4940   12.8390 N   0  0  0  0  0  0  0  0  0  0  0  0
   -4.3190    1.6200   13.9050 C   0  0  0  0  0  0  0  0  0  0  0  0
   -5.1070    2.6680   14.0440 N   0  0  0  0  0  0  0  0  0  0  0  0
   -5.8840    2.5890   15.1840 N   0  0  0  0  0  0  0  0  0  0  0  0
   -5.6340    1.4750   15.8420 C   0  0  0  0  0  0  0  0  0  0  0  0
   -6.4120    0.9900   17.3450 S   0  0  0  0  0  0  0  0  0  0  0  0
   -6.3640    2.3160   18.3930 N   0  0  0  0  0  0  0  0  0  0  0  0
   -7.8020    0.7690   17.0220 O   0  0  0  0  0  0  0  0  0  0  0  0
   -5.5610   -0.0240   17.9250 O   0  0  0  0  0  0  0  0  0  0  0  0
   -4.4640    0.4580   15.1450 S   0  0  0  0  0  0  0  0  0  0  0  0
   -1.5063    0.8726   11.3307 H   0  0  0  0  0  0  0  0  0  0  0  0
   -2.4147   -0.1394   10.1571 H   0  0  0  0  0  0  0  0  0  0  0  0
   -2.6260    1.6444   10.1571 H   0  0  0  0  0  0  0  0  0  0  0  0
   -2.6690    2.1180   12.8840 H   0  0  0  0  0  0  0  0  0  0  0  0
   -6.0440    2.0440   19.3230 H   0  0  0  0  0  0  0  0  0  0  0  0
   -7.2510    2.8210   18.3940 H   0  0  0  0  0  0  0  0  0  0  0  0
  1  2  1  0
  2  3  2  0
  2  4  1  0
  4  5  1  0
  5  6  2  0
  6  7  1  0
  7  8  2  0
  8  9  1  0
  9 10  1  0
  9 11  2  0
  9 12  2  0
  8 13  1  0
 13  5  1  0
  1 14  1  0
  1 15  1  0
  1 16  1  0
  4 17  1  0
 10 18  1  0
 10 19  1  0
M  END
>  <meeko>  (4) 
{"is_sidechain": false}

>  <vina_kcal_mol>  (4) 
-5.957

>  <rmsd_cristal>  (4) 
3.69

$$$$
pose 5
     RDKit          3D

 19 19  0  0  0  0  0  0  0  0999 V2000
   -2.9160    4.8590    9.1490 C   0  0  0  0  0  0  0  0  0  0  0  0
   -2.7070    3.9750   10.3550 C   0  0  0  0  0  0  0  0  0  0  0  0
   -1.5780    3.7680   10.7840 O   0  0  0  0  0  0  0  0  0  0  0  0
   -3.8900    3.5020   10.8710 N   0  0  0  0  0  0  0  0  0  0  0  0
   -4.0430    2.6810   11.9610 C   0  0  0  0  0  0  0  0  0  0  0  0
   -3.9520    1.3690   11.8610 N   0  0  0  0  0  0  0  0  0  0  0  0
   -4.1380    0.7400   13.0780 N   0  0  0  0  0  0  0  0  0  0  0  0
   -4.3590    1.6230   14.0310 C   0  0  0  0  0  0  0  0  0  0  0  0
   -4.6420    1.2360   15.7240 S   0  0  0  0  0  0  0  0  0  0  0  0
   -4.8920   -0.4330   15.8290 N   0  0  0  0  0  0  0  0  0  0  0  0
   -3.4010    1.5120   16.4100 O   0  0  0  0  0  0  0  0  0  0  0  0
   -5.8970    1.8630   16.0720 O   0  0  0  0  0  0  0  0  0  0  0  0
   -4.3580    3.2500   13.5380 S   0  0  0  0  0  0  0  0  0  0  0  0
   -3.1574    5.8799    9.4801 H   0  0  0  0  0  0  0  0  0  0  0  0
   -1.9974    4.8772    8.5441 H   0  0  0  0  0  0  0  0  0  0  0  0
   -3.7455    4.4640    8.5441 H   0  0  0  0  0  0  0  0  0  0  0  0
   -4.7660    3.7680   10.4410 H   0  0  0  0  0  0  0  0  0  0  0  0
   -4.6450   -0.7890   16.7530 H   0  0  0  0  0  0  0  0  0  0  0  0
   -4.4330   -0.9260   15.0630 H   0  0  0  0  0  0  0  0  0  0  0  0
  1  2  1  0
  2  3  2  0
  2  4  1  0
  4  5  1  0
  5  6  2  0
  6  7  1  0
  7  8  2  0
  8  9  1  0
  9 10  1  0
  9 11  2  0
  9 12  2  0
  8 13  1  0
 13  5  1  0
  1 14  1  0
  1 15  1  0
  1 16  1  0
  4 17  1  0
 10 18  1  0
 10 19  1  0
M  END
>  <meeko>  (5) 
{"is_sidechain": false}

>  <vina_kcal_mol>  (5) 
-5.598

>  <rmsd_cristal>  (5) 
3.27

$$$$
pose 6
     RDKit          3D

 19 19  0  0  0  0  0  0  0  0999 V2000
   -5.8080    1.0460   17.3500 C   0  0  0  0  0  0  0  0  0  0  0  0
   -4.7230    1.2410   16.3180 C   0  0  0  0  0  0  0  0  0  0  0  0
   -3.6110    0.7560   16.4880 O   0  0  0  0  0  0  0  0  0  0  0  0
   -5.1560    1.9650   15.2320 N   0  0  0  0  0  0  0  0  0  0  0  0
   -4.4190    2.3100   14.1260 C   0  0  0  0  0  0  0  0  0  0  0  0
   -3.9410    1.4030   13.2980 N   0  0  0  0  0  0  0  0  0  0  0  0
   -3.2320    1.9700   12.2560 N   0  0  0  0  0  0  0  0  0  0  0  0
   -3.2180    3.2840   12.3610 C   0  0  0  0  0  0  0  0  0  0  0  0
   -2.4250    4.3820   11.2380 S   0  0  0  0  0  0  0  0  0  0  0  0
   -2.6140    3.7430    9.6840 N   0  0  0  0  0  0  0  0  0  0  0  0
   -3.1850    5.6090   11.2750 O   0  0  0  0  0  0  0  0  0  0  0  0
   -1.0140    4.3140   11.5430 O   0  0  0  0  0  0  0  0  0  0  0  0
   -4.0460    3.9200   13.7030 S   0  0  0  0  0  0  0  0  0  0  0  0
   -5.3739    1.1240   18.3577 H   0  0  0  0  0  0  0  0  0  0  0  0
   -6.5791    1.8199   17.2220 H   0  0  0  0  0  0  0  0  0  0  0  0
   -6.2614    0.0520   17.2220 H   0  0  0  0  0  0  0  0  0  0  0  0
   -6.1120    2.2900   15.1950 H   0  0  0  0  0  0  0  0  0  0  0  0
   -2.0690    2.8890    9.5640 H   0  0  0  0  0  0  0  0  0  0  0  0
   -2.4360    4.4490    8.9680 H   0  0  0  0  0  0  0  0  0  0  0  0
  1  2  1  0
  2  3  2  0
  2  4  1  0
  4  5  1  0
  5  6  2  0
  6  7  1  0
  7  8  2  0
  8  9  1  0
  9 10  1  0
  9 11  2  0
  9 12  2  0
  8 13  1  0
 13  5  1  0
  1 14  1  0
  1 15  1  0
  1 16  1  0
  4 17  1  0
 10 18  1  0
 10 19  1  0
M  END
>  <meeko>  (6) 
{"is_sidechain": false}

>  <vina_kcal_mol>  (6) 
-5.459

>  <rmsd_cristal>  (6) 
5.87

$$$$
pose 7
     RDKit          3D

 19 19  0  0  0  0  0  0  0  0999 V2000
   -2.6810    6.6230   14.5290 C   0  0  0  0  0  0  0  0  0  0  0  0
   -2.4580    5.1820   14.1390 C   0  0  0  0  0  0  0  0  0  0  0  0
   -1.3630    4.6570   14.3020 O   0  0  0  0  0  0  0  0  0  0  0  0
   -3.5960    4.5910   13.6410 N   0  0  0  0  0  0  0  0  0  0  0  0
   -3.7260    3.2960   13.2040 C   0  0  0  0  0  0  0  0  0  0  0  0
   -4.0830    2.3200   14.0150 N   0  0  0  0  0  0  0  0  0  0  0  0
   -4.1530    1.1020   13.3660 N   0  0  0  0  0  0  0  0  0  0  0  0
   -3.8440    1.2330   12.0920 C   0  0  0  0  0  0  0  0  0  0  0  0
   -3.8150   -0.0760   10.9160 S   0  0  0  0  0  0  0  0  0  0  0  0
   -5.1260    0.1490    9.8720 N   0  0  0  0  0  0  0  0  0  0  0  0
   -2.6210    0.1210   10.1280 O   0  0  0  0  0  0  0  0  0  0  0  0
   -4.0840   -1.2860   11.6600 O   0  0  0  0  0  0  0  0  0  0  0  0
   -3.4530    2.8100   11.5910 S   0  0  0  0  0  0  0  0  0  0  0  0
   -2.6942    6.7082   15.6256 H   0  0  0  0  0  0  0  0  0  0  0  0
   -1.8681    7.2428   14.1228 H   0  0  0  0  0  0  0  0  0  0  0  0
   -3.6432    6.9681   14.1228 H   0  0  0  0  0  0  0  0  0  0  0  0
   -4.4520    5.1240   13.5810 H   0  0  0  0  0  0  0  0  0  0  0  0
   -5.3930    1.1320    9.8170 H   0  0  0  0  0  0  0  0  0  0  0  0
   -5.8990   -0.4750   10.1070 H   0  0  0  0  0  0  0  0  0  0  0  0
  1  2  1  0
  2  3  2  0
  2  4  1  0
  4  5  1  0
  5  6  2  0
  6  7  1  0
  7  8  2  0
  8  9  1  0
  9 10  1  0
  9 11  2  0
  9 12  2  0
  8 13  1  0
 13  5  1  0
  1 14  1  0
  1 15  1  0
  1 16  1  0
  4 17  1  0
 10 18  1  0
 10 19  1  0
M  END
>  <meeko>  (7) 
{"is_sidechain": false}

>  <vina_kcal_mol>  (7) 
-5.449

>  <rmsd_cristal>  (7) 
4.78

$$$$
pose 8
     RDKit          3D

 19 19  0  0  0  0  0  0  0  0999 V2000
    2.2000    4.4980   10.7650 C   0  0  0  0  0  0  0  0  0  0  0  0
    0.7560    4.1070   10.5570 C   0  0  0  0  0  0  0  0  0  0  0  0
    0.1960    4.3450    9.4940 O   0  0  0  0  0  0  0  0  0  0  0  0
    0.2230    3.4660   11.6510 N   0  0  0  0  0  0  0  0  0  0  0  0
   -1.0560    2.9840   11.7800 C   0  0  0  0  0  0  0  0  0  0  0  0
   -1.9450    3.5710   12.5560 N   0  0  0  0  0  0  0  0  0  0  0  0
   -3.1640    2.9210   12.5360 N   0  0  0  0  0  0  0  0  0  0  0  0
   -3.1220    1.8740   11.7380 C   0  0  0  0  0  0  0  0  0  0  0  0
   -4.4650    0.7790   11.4310 S   0  0  0  0  0  0  0  0  0  0  0  0
   -4.2190    0.0870    9.9070 N   0  0  0  0  0  0  0  0  0  0  0  0
   -4.3390   -0.2890   12.3950 O   0  0  0  0  0  0  0  0  0  0  0  0
   -5.6410    1.6120   11.3200 O   0  0  0  0  0  0  0  0  0  0  0  0
   -1.6330    1.6010   10.9650 S   0  0  0  0  0  0  0  0  0  0  0  0
    2.4127    4.5556   11.8427 H   0  0  0  0  0  0  0  0  0  0  0  0
    2.8542    3.7447   10.3019 H   0  0  0  0  0  0  0  0  0  0  0  0
    2.3847    5.4785   10.3019 H   0  0  0  0  0  0  0  0  0  0  0  0
    0.7990    3.3020   12.4650 H   0  0  0  0  0  0  0  0  0  0  0  0
   -4.5810   -0.8660    9.8690 H   0  0  0  0  0  0  0  0  0  0  0  0
   -3.2450    0.1700    9.6150 H   0  0  0  0  0  0  0  0  0  0  0  0
  1  2  1  0
  2  3  2  0
  2  4  1  0
  4  5  1  0
  5  6  2  0
  6  7  1  0
  7  8  2  0
  8  9  1  0
  9 10  1  0
  9 11  2  0
  9 12  2  0
  8 13  1  0
 13  5  1  0
  1 14  1  0
  1 15  1  0
  1 16  1  0
  4 17  1  0
 10 18  1  0
 10 19  1  0
M  END
>  <meeko>  (8) 
{"is_sidechain": false}

>  <vina_kcal_mol>  (8) 
-5.243

>  <rmsd_cristal>  (8) 
5.92

$$$$
pose 9
     RDKit          3D

 19 19  0  0  0  0  0  0  0  0999 V2000
   -4.4100    1.1530   16.2470 C   0  0  0  0  0  0  0  0  0  0  0  0
   -4.8770    2.0480   15.1250 C   0  0  0  0  0  0  0  0  0  0  0  0
   -5.8000    2.8330   15.3010 O   0  0  0  0  0  0  0  0  0  0  0  0
   -4.1400    1.8780   13.9760 N   0  0  0  0  0  0  0  0  0  0  0  0
   -4.3080    2.5390   12.7850 C   0  0  0  0  0  0  0  0  0  0  0  0
   -5.0930    2.0710   11.8350 N   0  0  0  0  0  0  0  0  0  0  0  0
   -5.1160    2.8940   10.7240 N   0  0  0  0  0  0  0  0  0  0  0  0
   -4.3400    3.9430   10.9060 C   0  0  0  0  0  0  0  0  0  0  0  0
   -4.0910    5.2330    9.7340 S   0  0  0  0  0  0  0  0  0  0  0  0
   -5.5900    5.9680    9.4610 N   0  0  0  0  0  0  0  0  0  0  0  0
   -3.2640    6.2170   10.3930 O   0  0  0  0  0  0  0  0  0  0  0  0
   -3.7190    4.5830    8.4990 O   0  0  0  0  0  0  0  0  0  0  0  0
   -3.5400    4.0140   12.4040 S   0  0  0  0  0  0  0  0  0  0  0  0
   -4.6532    1.6191   17.2132 H   0  0  0  0  0  0  0  0  0  0  0  0
   -4.9145    0.1783   16.1727 H   0  0  0  0  0  0  0  0  0  0  0  0
   -3.3220    1.0093   16.1727 H   0  0  0  0  0  0  0  0  0  0  0  0
   -3.3780    1.2130   13.9630 H   0  0  0  0  0  0  0  0  0  0  0  0
   -6.0690    5.5490    8.6640 H   0  0  0  0  0  0  0  0  0  0  0  0
   -5.5000    6.9830    9.4010 H   0  0  0  0  0  0  0  0  0  0  0  0
  1  2  1  0
  2  3  2  0
  2  4  1  0
  4  5  1  0
  5  6  2  0
  6  7  1  0
  7  8  2  0
  8  9  1  0
  9 10  1  0
  9 11  2  0
  9 12  2  0
  8 13  1  0
 13  5  1  0
  1 14  1  0
  1 15  1  0
  1 16  1  0
  4 17  1  0
 10 18  1  0
 10 19  1  0
M  END
>  <meeko>  (9) 
{"is_sidechain": false}

>  <vina_kcal_mol>  (9) 
-5.216

>  <rmsd_cristal>  (9) 
6.28

$$$$
