pose 1
     RDKit          3D

 58 61  0  0  0  0  0  0  0  0999 V2000
  -21.1620  -40.9920   26.4010 C   0  0  0  0  0  0  0  0  0  0  0  0
  -20.5170  -41.4160   25.2080 O   0  0  0  0  0  0  0  0  0  0  0  0
  -19.2230  -41.8680   25.3000 C   0  0  0  0  0  0  0  0  0  0  0  0
  -18.5350  -42.0400   26.5110 C   0  0  0  0  0  0  0  0  0  0  0  0
  -17.2290  -42.5050   26.4760 C   0  0  0  0  0  0  0  0  0  0  0  0
  -16.6330  -42.7910   25.2560 C   0  0  0  0  0  0  0  0  0  0  0  0
  -17.2740  -42.6400   24.0410 C   0  0  0  0  0  0  0  0  0  0  0  0
  -18.5900  -42.1700   24.0620 C   0  0  0  0  0  0  0  0  0  0  0  0
  -19.3540  -41.9710   22.9370 O   0  0  0  0  0  0  0  0  0  0  0  0
  -18.9710  -40.9290   22.0510 C   0  0  0  0  0  0  0  0  0  0  0  0
  -15.2790  -43.2610   25.5090 C   0  0  0  0  0  0  0  0  0  0  0  0
  -14.5000  -43.6480   24.6540 O   0  0  0  0  0  0  0  0  0  0  0  0
  -14.9870  -43.1960   26.9960 C   0  0  2  0  0  0  0  0  0  0  0  0
  -14.4550  -44.5530   27.4790 C   0  0  0  0  0  0  0  0  0  0  0  0
  -12.9750  -44.8070   27.1210 C   0  0  0  0  0  0  0  0  0  0  0  0
  -12.0600  -43.8550   27.9040 C   0  0  0  0  0  0  0  0  0  0  0  0
  -12.0050  -44.1330   29.4080 C   0  0  0  0  0  0  0  0  0  0  0  0
  -12.1490  -45.6060   29.7050 N   0  0  0  0  0  0  0  0  0  0  0  0
  -11.6430  -46.0070   31.0790 C   0  0  0  0  0  0  0  0  0  0  0  0
  -10.2160  -45.6420   31.3940 C   0  0  0  0  0  0  0  0  0  0  0  0
   -9.1620  -46.5030   31.0490 C   0  0  0  0  0  0  0  0  0  0  0  0
   -7.8400  -46.1560   31.3290 C   0  0  0  0  0  0  0  0  0  0  0  0
   -7.5540  -44.9510   31.9640 C   0  0  0  0  0  0  0  0  0  0  0  0
   -8.5890  -44.0950   32.3290 C   0  0  0  0  0  0  0  0  0  0  0  0
   -9.9130  -44.4390   32.0500 C   0  0  0  0  0  0  0  0  0  0  0  0
  -11.6490  -46.4750   28.5870 C   0  0  0  0  0  0  0  0  0  0  0  0
  -12.5480  -46.2720   27.3660 C   0  0  0  0  0  0  0  0  0  0  0  0
  -16.3280  -42.7770   27.6410 C   0  0  0  0  0  0  0  0  0  0  0  0
  -20.6008  -41.3609   27.2722 H   0  0  0  0  0  0  0  0  0  0  0  0
  -21.1989  -39.8929   26.4272 H   0  0  0  0  0  0  0  0  0  0  0  0
  -22.1856  -41.3939   26.4272 H   0  0  0  0  0  0  0  0  0  0  0  0
  -19.0225  -41.8103   27.4699 H   0  0  0  0  0  0  0  0  0  0  0  0
  -16.7681  -42.8804   23.0943 H   0  0  0  0  0  0  0  0  0  0  0  0
  -18.6489  -40.0528   22.6329 H   0  0  0  0  0  0  0  0  0  0  0  0
  -18.1407  -41.2735   21.4170 H   0  0  0  0  0  0  0  0  0  0  0  0
  -19.8267  -40.6538   21.4170 H   0  0  0  0  0  0  0  0  0  0  0  0
  -14.2024  -42.4751   27.2693 H   0  0  0  0  0  0  0  0  0  0  0  0
  -14.5592  -44.5965   28.5732 H   0  0  0  0  0  0  0  0  0  0  0  0
  -15.0451  -45.3280   26.9679 H   0  0  0  0  0  0  0  0  0  0  0  0
  -12.8716  -44.6117   26.0434 H   0  0  0  0  0  0  0  0  0  0  0  0
  -11.0412  -43.9450   27.4991 H   0  0  0  0  0  0  0  0  0  0  0  0
  -12.4785  -42.8448   27.7844 H   0  0  0  0  0  0  0  0  0  0  0  0
  -11.0394  -43.7820   29.8011 H   0  0  0  0  0  0  0  0  0  0  0  0
  -12.8402  -43.6014   29.8875 H   0  0  0  0  0  0  0  0  0  0  0  0
  -13.1590  -45.7880   29.7660 H   0  0  0  0  0  0  0  0  0  0  0  0
  -12.2866  -45.5229   31.8283 H   0  0  0  0  0  0  0  0  0  0  0  0
  -11.6767  -47.1064   31.0962 H   0  0  0  0  0  0  0  0  0  0  0  0
   -9.3806  -47.4603   30.5532 H   0  0  0  0  0  0  0  0  0  0  0  0
   -7.0224  -46.8359   31.0474 H   0  0  0  0  0  0  0  0  0  0  0  0
   -6.5107  -44.6753   32.1773 H   0  0  0  0  0  0  0  0  0  0  0  0
   -8.3635  -43.1462   32.8379 H   0  0  0  0  0  0  0  0  0  0  0  0
  -10.7264  -43.7607   32.3472 H   0  0  0  0  0  0  0  0  0  0  0  0
  -10.6152  -46.1958   28.3356 H   0  0  0  0  0  0  0  0  0  0  0  0
  -11.6700  -47.5306   28.8957 H   0  0  0  0  0  0  0  0  0  0  0  0
  -12.0048  -46.6248   26.4769 H   0  0  0  0  0  0  0  0  0  0  0  0
  -13.4708  -46.8387   27.5592 H   0  0  0  0  0  0  0  0  0  0  0  0
  -16.7311  -43.5887   28.2644 H   0  0  0  0  0  0  0  0  0  0  0  0
  -16.2219  -41.9051   28.3032 H   0  0  0  0  0  0  0  0  0  0  0  0
  1  2  1  0
  2  3  1  0
  3  4  2  0
  4  5  1  0
  5  6  2  0
  6  7  1  0
  7  8  2  0
  8  9  1  0
  9 10  1  0
  6 11  1  0
 11 12  2  0
 11 13  1  0
 13 14  1  0
 14 15  1  0
 15 16  1  0
 16 17  1  0
 17 18  1  0
 18 19  1  0
 19 20  1  0
 20 21  2  0
 21 22  1  0
 22 23  2  0
 23 24  1  0
 24 25  2  0
 18 26  1  0
 26 27  1  0
 13 28  1  0
  8  3  1  0
 27 15  1  0
 28  5  1  0
 25 20  1  0
  1 29  1  0
  1 30  1  0
  1 31  1  0
  4 32  1  0
  7 33  1  0
 10 34  1  0
 10 35  1  0
 10 36  1  0
 13 37  1  6
 14 38  1  0
 14 39  1  0
 15 40  1  0
 16 41  1  0
 16 42  1  0
 17 43  1  0
 17 44  1  0
 18 45  1  0
 19 46  1  0
 19 47  1  0
 21 48  1  0
 22 49  1  0
 23 50  1  0
 24 51  1  0
 25 52  1  0
 26 53  1  0
 26 54  1  0
 27 55  1  0
 27 56  1  0
 28 57  1  0
 28 58  1  0
M  CHG  1  18   1
M  END
>  <meeko>  (1) 
{"is_sidechain": false}

>  <vina_kcal_mol>  (1) 
-11.79

>  <rmsd_cristal>  (1) 
0.79

$$$$
pose 2
     RDKit          3D

 58 61  0  0  0  0  0  0  0  0999 V2000
   -9.7250  -41.6020   35.4700 C   0  0  0  0  0  0  0  0  0  0  0  0
  -10.1860  -41.3520   34.1500 O   0  0  0  0  0  0  0  0  0  0  0  0
  -10.5020  -42.4310   33.3610 C   0  0  0  0  0  0  0  0  0  0  0  0
  -11.8130  -42.7890   33.0070 C   0  0  0  0  0  0  0  0  0  0  0  0
  -12.0070  -43.9010   32.2020 C   0  0  0  0  0  0  0  0  0  0  0  0
  -10.9120  -44.6330   31.7640 C   0  0  0  0  0  0  0  0  0  0  0  0
   -9.6050  -44.3140   32.0850 C   0  0  0  0  0  0  0  0  0  0  0  0
   -9.3960  -43.1960   32.8970 C   0  0  0  0  0  0  0  0  0  0  0  0
   -8.1570  -42.7570   33.2980 O   0  0  0  0  0  0  0  0  0  0  0  0
   -7.0180  -43.4560   32.8180 C   0  0  0  0  0  0  0  0  0  0  0  0
  -11.3960  -45.7310   30.9420 C   0  0  0  0  0  0  0  0  0  0  0  0
  -10.6880  -46.5340   30.3570 O   0  0  0  0  0  0  0  0  0  0  0  0
  -12.9120  -45.7230   30.9240 C   0  0  2  0  0  0  0  0  0  0  0  0
  -13.4130  -45.7640   29.4740 C   0  0  0  0  0  0  0  0  0  0  0  0
  -12.3190  -45.4700   28.4250 C   0  0  0  0  0  0  0  0  0  0  0  0
  -12.7380  -45.9970   27.0460 C   0  0  0  0  0  0  0  0  0  0  0  0
  -13.9030  -45.2350   26.4100 C   0  0  0  0  0  0  0  0  0  0  0  0
  -13.8810  -43.7740   26.7890 N   0  0  0  0  0  0  0  0  0  0  0  0
  -14.6850  -42.8860   25.8560 C   0  0  0  0  0  0  0  0  0  0  0  0
  -16.1330  -42.6810   26.2180 C   0  0  0  0  0  0  0  0  0  0  0  0
  -16.5310  -42.5970   27.5610 C   0  0  0  0  0  0  0  0  0  0  0  0
  -17.8720  -42.3940   27.8940 C   0  0  0  0  0  0  0  0  0  0  0  0
  -18.8300  -42.2800   26.8910 C   0  0  0  0  0  0  0  0  0  0  0  0
  -18.4530  -42.3780   25.5540 C   0  0  0  0  0  0  0  0  0  0  0  0
  -17.1130  -42.5810   25.2180 C   0  0  0  0  0  0  0  0  0  0  0  0
  -12.4970  -43.2700   27.0780 C   0  0  0  0  0  0  0  0  0  0  0  0
  -11.9710  -43.9670   28.3350 C   0  0  0  0  0  0  0  0  0  0  0  0
  -13.3070  -44.4420   31.6940 C   0  0  0  0  0  0  0  0  0  0  0  0
  -10.4532  -41.2071   36.1937 H   0  0  0  0  0  0  0  0  0  0  0  0
   -9.6105  -42.6858   35.6193 H   0  0  0  0  0  0  0  0  0  0  0  0
   -8.7542  -41.1067   35.6193 H   0  0  0  0  0  0  0  0  0  0  0  0
  -12.6702  -42.1980   33.3619 H   0  0  0  0  0  0  0  0  0  0  0  0
   -8.7626  -44.9171   31.7154 H   0  0  0  0  0  0  0  0  0  0  0  0
   -6.4251  -43.8199   33.6701 H   0  0  0  0  0  0  0  0  0  0  0  0
   -7.3431  -44.3103   32.2060 H   0  0  0  0  0  0  0  0  0  0  0  0
   -6.4035  -42.7793   32.2060 H   0  0  0  0  0  0  0  0  0  0  0  0
  -13.3721  -46.6000   31.4027 H   0  0  0  0  0  0  0  0  0  0  0  0
  -13.8212  -46.7662   29.2769 H   0  0  0  0  0  0  0  0  0  0  0  0
  -14.1704  -44.9723   29.3756 H   0  0  0  0  0  0  0  0  0  0  0  0
  -11.4120  -45.9961   28.7576 H   0  0  0  0  0  0  0  0  0  0  0  0
  -11.8714  -45.9271   26.3722 H   0  0  0  0  0  0  0  0  0  0  0  0
  -13.0807  -47.0317   27.1941 H   0  0  0  0  0  0  0  0  0  0  0  0
  -13.8318  -45.3215   25.3157 H   0  0  0  0  0  0  0  0  0  0  0  0
  -14.8431  -45.6727   26.7770 H   0  0  0  0  0  0  0  0  0  0  0  0
  -14.3940  -43.7010   27.6780 H   0  0  0  0  0  0  0  0  0  0  0  0
  -14.2015  -41.8982   25.8330 H   0  0  0  0  0  0  0  0  0  0  0  0
  -14.6942  -43.4077   24.8876 H   0  0  0  0  0  0  0  0  0  0  0  0
  -15.7798  -42.6919   28.3589 H   0  0  0  0  0  0  0  0  0  0  0  0
  -18.1713  -42.3241   28.9502 H   0  0  0  0  0  0  0  0  0  0  0  0
  -19.8848  -42.1125   27.1543 H   0  0  0  0  0  0  0  0  0  0  0  0
  -19.2116  -42.2954   24.7618 H   0  0  0  0  0  0  0  0  0  0  0  0
  -16.8227  -42.6633   24.1602 H   0  0  0  0  0  0  0  0  0  0  0  0
  -11.8367  -43.4941   26.2272 H   0  0  0  0  0  0  0  0  0  0  0  0
  -12.5209  -42.1817   27.2363 H   0  0  0  0  0  0  0  0  0  0  0  0
  -10.8758  -43.8659   28.3515 H   0  0  0  0  0  0  0  0  0  0  0  0
  -12.4598  -43.4799   29.1916 H   0  0  0  0  0  0  0  0  0  0  0  0
  -13.7947  -43.7190   31.0236 H   0  0  0  0  0  0  0  0  0  0  0  0
  -14.0243  -44.6423   32.5036 H   0  0  0  0  0  0  0  0  0  0  0  0
  1  2  1  0
  2  3  1  0
  3  4  2  0
  4  5  1  0
  5  6  2  0
  6  7  1  0
  7  8  2  0
  8  9  1  0
  9 10  1  0
  6 11  1  0
 11 12  2  0
 11 13  1  0
 13 14  1  0
 14 15  1  0
 15 16  1  0
 16 17  1  0
 17 18  1  0
 18 19  1  0
 19 20  1  0
 20 21  2  0
 21 22  1  0
 22 23  2  0
 23 24  1  0
 24 25  2  0
 18 26  1  0
 26 27  1  0
 13 28  1  0
  8  3  1  0
 27 15  1  0
 28  5  1  0
 25 20  1  0
  1 29  1  0
  1 30  1  0
  1 31  1  0
  4 32  1  0
  7 33  1  0
 10 34  1  0
 10 35  1  0
 10 36  1  0
 13 37  1  1
 14 38  1  0
 14 39  1  0
 15 40  1  0
 16 41  1  0
 16 42  1  0
 17 43  1  0
 17 44  1  0
 18 45  1  0
 19 46  1  0
 19 47  1  0
 21 48  1  0
 22 49  1  0
 23 50  1  0
 24 51  1  0
 25 52  1  0
 26 53  1  0
 26 54  1  0
 27 55  1  0
 27 56  1  0
 28 57  1  0
 28 58  1  0
M  CHG  1  18   1
M  END
>  <meeko>  (2) 
{"is_sidechain": false}

>  <vina_kcal_mol>  (2) 
-11.088

>  <rmsd_cristal>  (2) 
9.43

$$$$
pose 3
     RDKit          3D

 58 61  0  0  0  0  0  0  0  0999 V2000
  -18.4020  -40.7430   22.0370 C   0  0  0  0  0  0  0  0  0  0  0  0
  -18.8730  -41.7270   22.9460 O   0  0  0  0  0  0  0  0  0  0  0  0
  -18.0410  -42.1100   23.9700 C   0  0  0  0  0  0  0  0  0  0  0  0
  -16.7170  -42.5400   23.7870 C   0  0  0  0  0  0  0  0  0  0  0  0
  -15.9720  -42.9010   24.8990 C   0  0  0  0  0  0  0  0  0  0  0  0
  -16.5440  -42.8300   26.1620 C   0  0  0  0  0  0  0  0  0  0  0  0
  -17.8410  -42.4090   26.3880 C   0  0  0  0  0  0  0  0  0  0  0  0
  -18.6030  -42.0440   25.2750 C   0  0  0  0  0  0  0  0  0  0  0  0
  -19.9040  -41.6070   25.3430 O   0  0  0  0  0  0  0  0  0  0  0  0
  -20.4330  -41.2920   26.6230 C   0  0  0  0  0  0  0  0  0  0  0  0
  -15.5520  -43.2570   27.1370 C   0  0  0  0  0  0  0  0  0  0  0  0
  -15.7130  -43.2620   28.3450 O   0  0  0  0  0  0  0  0  0  0  0  0
  -14.2890  -43.6930   26.4190 C   0  0  2  0  0  0  0  0  0  0  0  0
  -13.0760  -42.9690   27.0200 C   0  0  0  0  0  0  0  0  0  0  0  0
  -11.8760  -43.8950   27.3130 C   0  0  0  0  0  0  0  0  0  0  0  0
  -10.7980  -43.1460   28.1100 C   0  0  0  0  0  0  0  0  0  0  0  0
  -11.2050  -42.8030   29.5450 C   0  0  0  0  0  0  0  0  0  0  0  0
  -12.1150  -43.8550   30.1300 N   0  0  0  0  0  0  0  0  0  0  0  0
  -12.1740  -43.8390   31.6470 C   0  0  0  0  0  0  0  0  0  0  0  0
  -10.8990  -43.4670   32.3580 C   0  0  0  0  0  0  0  0  0  0  0  0
   -9.6810  -44.0720   32.0110 C   0  0  0  0  0  0  0  0  0  0  0  0
   -8.4990  -43.7150   32.6620 C   0  0  0  0  0  0  0  0  0  0  0  0
   -8.5200  -42.7560   33.6700 C   0  0  0  0  0  0  0  0  0  0  0  0
   -9.7220  -42.1580   34.0370 C   0  0  0  0  0  0  0  0  0  0  0  0
  -10.9060  -42.5130   33.3880 C   0  0  0  0  0  0  0  0  0  0  0  0
  -11.8860  -45.2150   29.5370 C   0  0  0  0  0  0  0  0  0  0  0  0
  -12.2890  -45.1830   28.0610 C   0  0  0  0  0  0  0  0  0  0  0  0
  -14.5490  -43.3650   24.9310 C   0  0  0  0  0  0  0  0  0  0  0  0
  -17.9938  -39.8901   22.5990 H   0  0  0  0  0  0  0  0  0  0  0  0
  -17.6136  -41.1761   21.4039 H   0  0  0  0  0  0  0  0  0  0  0  0
  -19.2338  -40.4006   21.4039 H   0  0  0  0  0  0  0  0  0  0  0  0
  -16.2787  -42.5896   22.7793 H   0  0  0  0  0  0  0  0  0  0  0  0
  -18.2574  -42.3630   27.4051 H   0  0  0  0  0  0  0  0  0  0  0  0
  -19.7665  -41.6888   27.4030 H   0  0  0  0  0  0  0  0  0  0  0  0
  -20.5116  -40.1999   26.7287 H   0  0  0  0  0  0  0  0  0  0  0  0
  -21.4306  -41.7433   26.7287 H   0  0  0  0  0  0  0  0  0  0  0  0
  -14.0569  -44.7628   26.5267 H   0  0  0  0  0  0  0  0  0  0  0  0
  -12.7498  -42.1933   26.3116 H   0  0  0  0  0  0  0  0  0  0  0  0
  -13.3996  -42.5512   27.9848 H   0  0  0  0  0  0  0  0  0  0  0  0
  -11.4657  -44.1996   26.3389 H   0  0  0  0  0  0  0  0  0  0  0  0
   -9.8969  -43.7757   28.1480 H   0  0  0  0  0  0  0  0  0  0  0  0
  -10.6281  -42.1905   27.5922 H   0  0  0  0  0  0  0  0  0  0  0  0
  -10.2994  -42.7293   30.1651 H   0  0  0  0  0  0  0  0  0  0  0  0
  -11.7490  -41.8471   29.5295 H   0  0  0  0  0  0  0  0  0  0  0  0
  -13.0710  -43.5910   29.8570 H   0  0  0  0  0  0  0  0  0  0  0  0
  -12.9478  -43.1163   31.9452 H   0  0  0  0  0  0  0  0  0  0  0  0
  -12.3851  -44.8768   31.9445 H   0  0  0  0  0  0  0  0  0  0  0  0
   -9.6577  -44.8346   31.2186 H   0  0  0  0  0  0  0  0  0  0  0  0
   -7.5496  -44.1924   32.3778 H   0  0  0  0  0  0  0  0  0  0  0  0
   -7.5864  -42.4705   34.1769 H   0  0  0  0  0  0  0  0  0  0  0  0
   -9.7391  -41.4052   34.8389 H   0  0  0  0  0  0  0  0  0  0  0  0
  -11.8535  -42.0407   33.6865 H   0  0  0  0  0  0  0  0  0  0  0  0
  -10.8225  -45.4822   29.6243 H   0  0  0  0  0  0  0  0  0  0  0  0
  -12.4886  -45.9630   30.0731 H   0  0  0  0  0  0  0  0  0  0  0  0
  -11.8172  -46.0395   27.5571 H   0  0  0  0  0  0  0  0  0  0  0  0
  -13.3880  -45.2217   28.0353 H   0  0  0  0  0  0  0  0  0  0  0  0
  -13.8721  -42.5710   24.5827 H   0  0  0  0  0  0  0  0  0  0  0  0
  -14.3731  -44.2286   24.2728 H   0  0  0  0  0  0  0  0  0  0  0  0
  1  2  1  0
  2  3  1  0
  3  4  2  0
  4  5  1  0
  5  6  2  0
  6  7  1  0
  7  8  2  0
  8  9  1  0
  9 10  1  0
  6 11  1  0
 11 12  2  0
 11 13  1  0
 13 14  1  0
 14 15  1  0
 15 16  1  0
 16 17  1  0
 17 18  1  0
 18 19  1  0
 19 20  1  0
 20 21  2  0
 21 22  1  0
 22 23  2  0
 23 24  1  0
 24 25  2  0
 18 26  1  0
 26 27  1  0
 13 28  1  0
  8  3  1  0
 27 15  1  0
 28  5  1  0
 25 20  1  0
  1 29  1  0
  1 30  1  0
  1 31  1  0
  4 32  1  0
  7 33  1  0
 10 34  1  0
 10 35  1  0
 10 36  1  0
 13 37  1  6
 14 38  1  0
 14 39  1  0
 15 40  1  0
 16 41  1  0
 16 42  1  0
 17 43  1  0
 17 44  1  0
 18 45  1  0
 19 46  1  0
 19 47  1  0
 21 48  1  0
 22 49  1  0
 23 50  1  0
 24 51  1  0
 25 52  1  0
 26 53  1  0
 26 54  1  0
 27 55  1  0
 27 56  1  0
 28 57  1  0
 28 58  1  0
M  CHG  1  18   1
M  END
>  <meeko>  (3) 
{"is_sidechain": false}

>  <vina_kcal_mol>  (3) 
-10.992

>  <rmsd_cristal>  (3) 
2.76

$$$$
pose 4
     RDKit          3D

 58 61  0  0  0  0  0  0  0  0999 V2000
  -20.8350  -41.5920   22.7220 C   0  0  0  0  0  0  0  0  0  0  0  0
  -20.8260  -41.1390   24.0680 O   0  0  0  0  0  0  0  0  0  0  0  0
  -19.8020  -41.5570   24.8830 C   0  0  0  0  0  0  0  0  0  0  0  0
  -18.5860  -42.0770   24.4130 C   0  0  0  0  0  0  0  0  0  0  0  0
  -17.6250  -42.4650   25.3350 C   0  0  0  0  0  0  0  0  0  0  0  0
  -17.8800  -42.3310   26.6920 C   0  0  0  0  0  0  0  0  0  0  0  0
  -19.0610  -41.8200   27.1980 C   0  0  0  0  0  0  0  0  0  0  0  0
  -20.0390  -41.4270   26.2800 C   0  0  0  0  0  0  0  0  0  0  0  0
  -21.2590  -40.9020   26.6330 O   0  0  0  0  0  0  0  0  0  0  0  0
  -22.3220  -41.8080   26.8880 C   0  0  0  0  0  0  0  0  0  0  0  0
  -16.7160  -42.8040   27.4250 C   0  0  0  0  0  0  0  0  0  0  0  0
  -16.5890  -42.7730   28.6370 O   0  0  0  0  0  0  0  0  0  0  0  0
  -15.6830  -43.3370   26.4500 C   0  0  2  0  0  0  0  0  0  0  0  0
  -14.3220  -42.6840   26.7270 C   0  0  0  0  0  0  0  0  0  0  0  0
  -13.1210  -43.6300   26.5200 C   0  0  0  0  0  0  0  0  0  0  0  0
  -11.8890  -43.1110   27.2760 C   0  0  0  0  0  0  0  0  0  0  0  0
  -12.0100  -43.1890   28.8000 C   0  0  0  0  0  0  0  0  0  0  0  0
  -12.8290  -44.3810   29.2310 N   0  0  0  0  0  0  0  0  0  0  0  0
  -12.6040  -44.7900   30.6760 C   0  0  0  0  0  0  0  0  0  0  0  0
  -11.1780  -45.0610   31.0750 C   0  0  0  0  0  0  0  0  0  0  0  0
  -10.4400  -44.1070   31.7950 C   0  0  0  0  0  0  0  0  0  0  0  0
   -9.1230  -44.3660   32.1760 C   0  0  0  0  0  0  0  0  0  0  0  0
   -8.5230  -45.5750   31.8360 C   0  0  0  0  0  0  0  0  0  0  0  0
   -9.2350  -46.5250   31.1070 C   0  0  0  0  0  0  0  0  0  0  0  0
  -10.5530  -46.2680   30.7260 C   0  0  0  0  0  0  0  0  0  0  0  0
  -12.7600  -45.5170   28.2520 C   0  0  0  0  0  0  0  0  0  0  0  0
  -13.4300  -45.0830   26.9460 C   0  0  0  0  0  0  0  0  0  0  0  0
  -16.2640  -43.0220   25.0520 C   0  0  0  0  0  0  0  0  0  0  0  0
  -20.8568  -42.6917   22.7054 H   0  0  0  0  0  0  0  0  0  0  0  0
  -21.7255  -41.1998   22.2091 H   0  0  0  0  0  0  0  0  0  0  0  0
  -19.9296  -41.2354   22.2091 H   0  0  0  0  0  0  0  0  0  0  0  0
  -18.3985  -42.1750   23.3335 H   0  0  0  0  0  0  0  0  0  0  0  0
  -19.2246  -41.7263   28.2817 H   0  0  0  0  0  0  0  0  0  0  0  0
  -22.4548  -41.9211   27.9741 H   0  0  0  0  0  0  0  0  0  0  0  0
  -23.2500  -41.4188   26.4437 H   0  0  0  0  0  0  0  0  0  0  0  0
  -22.0848  -42.7859   26.4437 H   0  0  0  0  0  0  0  0  0  0  0  0
  -15.4959  -44.4173   26.5392 H   0  0  0  0  0  0  0  0  0  0  0  0
  -14.2063  -41.8243   26.0506 H   0  0  0  0  0  0  0  0  0  0  0  0
  -14.3184  -42.3908   27.7872 H   0  0  0  0  0  0  0  0  0  0  0  0
  -12.9101  -43.6430   25.4405 H   0  0  0  0  0  0  0  0  0  0  0  0
  -11.0181  -43.7083   26.9679 H   0  0  0  0  0  0  0  0  0  0  0  0
  -11.7867  -42.0459   27.0208 H   0  0  0  0  0  0  0  0  0  0  0  0
  -11.0028  -43.2717   29.2345 H   0  0  0  0  0  0  0  0  0  0  0  0
  -12.5157  -42.2780   29.1525 H   0  0  0  0  0  0  0  0  0  0  0  0
  -13.8100  -44.0710   29.2270 H   0  0  0  0  0  0  0  0  0  0  0  0
  -12.9840  -43.9809   31.3170 H   0  0  0  0  0  0  0  0  0  0  0  0
  -13.1309  -45.7481   30.7965 H   0  0  0  0  0  0  0  0  0  0  0  0
  -10.9050  -43.1463   32.0611 H   0  0  0  0  0  0  0  0  0  0  0  0
   -8.5581  -43.6136   32.7459 H   0  0  0  0  0  0  0  0  0  0  0  0
   -7.4868  -45.7804   32.1428 H   0  0  0  0  0  0  0  0  0  0  0  0
   -8.7586  -47.4775   30.8317 H   0  0  0  0  0  0  0  0  0  0  0  0
  -11.1079  -47.0199   30.1457 H   0  0  0  0  0  0  0  0  0  0  0  0
  -11.7084  -45.7763   28.0598 H   0  0  0  0  0  0  0  0  0  0  0  0
  -13.2765  -46.3969   28.6630 H   0  0  0  0  0  0  0  0  0  0  0  0
  -13.0897  -45.7558   26.1450 H   0  0  0  0  0  0  0  0  0  0  0  0
  -14.5152  -45.1347   27.1185 H   0  0  0  0  0  0  0  0  0  0  0  0
  -15.6409  -42.2818   24.5286 H   0  0  0  0  0  0  0  0  0  0  0  0
  -16.2991  -43.9084   24.4015 H   0  0  0  0  0  0  0  0  0  0  0  0
  1  2  1  0
  2  3  1  0
  3  4  2  0
  4  5  1  0
  5  6  2  0
  6  7  1  0
  7  8  2  0
  8  9  1  0
  9 10  1  0
  6 11  1  0
 11 12  2  0
 11 13  1  0
 13 14  1  0
 14 15  1  0
 15 16  1  0
 16 17  1  0
 17 18  1  0
 18 19  1  0
 19 20  1  0
 20 21  2  0
 21 22  1  0
 22 23  2  0
 23 24  1  0
 24 25  2  0
 18 26  1  0
 26 27  1  0
 13 28  1  0
  8  3  1  0
 27 15  1  0
 28  5  1  0
 25 20  1  0
  1 29  1  0
  1 30  1  0
  1 31  1  0
  4 32  1  0
  7 33  1  0
 10 34  1  0
 10 35  1  0
 10 36  1  0
 13 37  1  6
 14 38  1  0
 14 39  1  0
 15 40  1  0
 16 41  1  0
 16 42  1  0
 17 43  1  0
 17 44  1  0
 18 45  1  0
 19 46  1  0
 19 47  1  0
 21 48  1  0
 22 49  1  0
 23 50  1  0
 24 51  1  0
 25 52  1  0
 26 53  1  0
 26 54  1  0
 27 55  1  0
 27 56  1  0
 28 57  1  0
 28 58  1  0
M  CHG  1  18   1
M  END
>  <meeko>  (4) 
{"is_sidechain": false}

>  <vina_kcal_mol>  (4) 
-10.845

>  <rmsd_cristal>  (4) 
2.74

$$$$
pose 5
     RDKit          3D

 58 61  0  0  0  0  0  0  0  0999 V2000
  -16.0060  -41.5480   22.8110 C   0  0  0  0  0  0  0  0  0  0  0  0
  -16.5650  -42.7040   23.4200 O   0  0  0  0  0  0  0  0  0  0  0  0
  -16.0910  -43.0760   24.6540 C   0  0  0  0  0  0  0  0  0  0  0  0
  -14.9310  -43.8420   24.8520 C   0  0  0  0  0  0  0  0  0  0  0  0
  -14.5510  -44.1540   26.1490 C   0  0  0  0  0  0  0  0  0  0  0  0
  -15.3160  -43.7070   27.2170 C   0  0  0  0  0  0  0  0  0  0  0  0
  -16.4620  -42.9480   27.0670 C   0  0  0  0  0  0  0  0  0  0  0  0
  -16.8570  -42.6270   25.7660 C   0  0  0  0  0  0  0  0  0  0  0  0
  -17.9700  -41.8810   25.4610 O   0  0  0  0  0  0  0  0  0  0  0  0
  -19.0670  -41.9270   26.3630 C   0  0  0  0  0  0  0  0  0  0  0  0
  -14.6950  -44.1680   28.4490 C   0  0  0  0  0  0  0  0  0  0  0  0
  -15.0840  -43.9030   29.5730 O   0  0  0  0  0  0  0  0  0  0  0  0
  -13.4880  -45.0270   28.1190 C   0  0  2  0  0  0  0  0  0  0  0  0
  -12.2630  -44.5190   28.8930 C   0  0  0  0  0  0  0  0  0  0  0  0
  -10.9230  -45.0950   28.3880 C   0  0  0  0  0  0  0  0  0  0  0  0
   -9.8680  -43.9850   28.2730 C   0  0  0  0  0  0  0  0  0  0  0  0
   -9.4070  -43.4160   29.6170 C   0  0  0  0  0  0  0  0  0  0  0  0
   -9.4120  -44.4710   30.6970 N   0  0  0  0  0  0  0  0  0  0  0  0
   -8.5460  -44.1270   31.8950 C   0  0  0  0  0  0  0  0  0  0  0  0
   -9.1950  -43.2840   32.9620 C   0  0  0  0  0  0  0  0  0  0  0  0
   -8.4310  -42.7300   34.0020 C   0  0  0  0  0  0  0  0  0  0  0  0
   -9.0320  -41.9380   34.9820 C   0  0  0  0  0  0  0  0  0  0  0  0
  -10.4010  -41.6950   34.9390 C   0  0  0  0  0  0  0  0  0  0  0  0
  -11.1750  -42.2510   33.9240 C   0  0  0  0  0  0  0  0  0  0  0  0
  -10.5770  -43.0430   32.9430 C   0  0  0  0  0  0  0  0  0  0  0  0
   -9.1950  -45.8550   30.1570 C   0  0  0  0  0  0  0  0  0  0  0  0
  -10.3930  -46.2370   29.2850 C   0  0  0  0  0  0  0  0  0  0  0  0
  -13.3490  -44.9350   26.5820 C   0  0  0  0  0  0  0  0  0  0  0  0
  -15.6683  -40.8497   23.5909 H   0  0  0  0  0  0  0  0  0  0  0  0
  -15.1499  -41.8408   22.1854 H   0  0  0  0  0  0  0  0  0  0  0  0
  -16.7671  -41.0588   22.1854 H   0  0  0  0  0  0  0  0  0  0  0  0
  -14.3349  -44.1881   23.9948 H   0  0  0  0  0  0  0  0  0  0  0  0
  -17.0408  -42.6097   27.9391 H   0  0  0  0  0  0  0  0  0  0  0  0
  -18.6923  -41.9113   27.3971 H   0  0  0  0  0  0  0  0  0  0  0  0
  -19.7166  -41.0553   26.1951 H   0  0  0  0  0  0  0  0  0  0  0  0
  -19.6413  -42.8500   26.1951 H   0  0  0  0  0  0  0  0  0  0  0  0
  -13.5898  -46.0803   28.4193 H   0  0  0  0  0  0  0  0  0  0  0  0
  -12.2255  -43.4234   28.8023 H   0  0  0  0  0  0  0  0  0  0  0  0
  -12.3821  -44.8519   29.9346 H   0  0  0  0  0  0  0  0  0  0  0  0
  -11.1163  -45.5220   27.3929 H   0  0  0  0  0  0  0  0  0  0  0  0
   -8.9901  -44.3960   27.7530 H   0  0  0  0  0  0  0  0  0  0  0  0
  -10.3394  -43.1565   27.7239 H   0  0  0  0  0  0  0  0  0  0  0  0
   -8.3857  -43.0224   29.5068 H   0  0  0  0  0  0  0  0  0  0  0  0
  -10.1051  -42.6185   29.9112 H   0  0  0  0  0  0  0  0  0  0  0  0
  -10.3630  -44.4730   31.0900 H   0  0  0  0  0  0  0  0  0  0  0  0
   -8.2263  -45.0709   32.3607 H   0  0  0  0  0  0  0  0  0  0  0  0
   -7.7211  -43.5173   31.4979 H   0  0  0  0  0  0  0  0  0  0  0  0
   -7.3487  -42.9219   34.0448 H   0  0  0  0  0  0  0  0  0  0  0  0
   -8.4223  -41.5056   35.7891 H   0  0  0  0  0  0  0  0  0  0  0  0
  -10.8720  -41.0636   35.7068 H   0  0  0  0  0  0  0  0  0  0  0  0
  -12.2589  -42.0658   33.8954 H   0  0  0  0  0  0  0  0  0  0  0  0
  -11.1954  -43.4828   32.1467 H   0  0  0  0  0  0  0  0  0  0  0  0
   -8.2761  -45.8763   29.5528 H   0  0  0  0  0  0  0  0  0  0  0  0
   -9.0943  -46.5690   30.9877 H   0  0  0  0  0  0  0  0  0  0  0  0
  -10.0928  -47.0727   28.6358 H   0  0  0  0  0  0  0  0  0  0  0  0
  -11.2101  -46.4990   29.9733 H   0  0  0  0  0  0  0  0  0  0  0  0
  -12.4227  -44.4104   26.3050 H   0  0  0  0  0  0  0  0  0  0  0  0
  -13.2958  -45.9245   26.1044 H   0  0  0  0  0  0  0  0  0  0  0  0
  1  2  1  0
  2  3  1  0
  3  4  2  0
  4  5  1  0
  5  6  2  0
  6  7  1  0
  7  8  2  0
  8  9  1  0
  9 10  1  0
  6 11  1  0
 11 12  2  0
 11 13  1  0
 13 14  1  0
 14 15  1  0
 15 16  1  0
 16 17  1  0
 17 18  1  0
 18 19  1  0
 19 20  1  0
 20 21  2  0
 21 22  1  0
 22 23  2  0
 23 24  1  0
 24 25  2  0
 18 26  1  0
 26 27  1  0
 13 28  1  0
  8  3  1  0
 27 15  1  0
 28  5  1  0
 25 20  1  0
  1 29  1  0
  1 30  1  0
  1 31  1  0
  4 32  1  0
  7 33  1  0
 10 34  1  0
 10 35  1  0
 10 36  1  0
 13 37  1  6
 14 38  1  0
 14 39  1  0
 15 40  1  0
 16 41  1  0
 16 42  1  0
 17 43  1  0
 17 44  1  0
 18 45  1  0
 19 46  1  0
 19 47  1  0
 21 48  1  0
 22 49  1  0
 23 50  1  0
 24 51  1  0
 25 52  1  0
 26 53  1  0
 26 54  1  0
 27 55  1  0
 27 56  1  0
 28 57  1  0
 28 58  1  0
M  CHG  1  18   1
M  END
>  <meeko>  (5) 
{"is_sidechain": false}

>  <vina_kcal_mol>  (5) 
-10.844

>  <rmsd_cristal>  (5) 
3.67

$$$$
pose 6
     RDKit          3D

 58 61  0  0  0  0  0  0  0  0999 V2000
  -17.4700  -40.7240   22.0400 C   0  0  0  0  0  0  0  0  0  0  0  0
  -17.9400  -41.8460   22.7720 O   0  0  0  0  0  0  0  0  0  0  0  0
  -17.2090  -42.2590   23.8600 C   0  0  0  0  0  0  0  0  0  0  0  0
  -15.8640  -42.6590   23.7970 C   0  0  0  0  0  0  0  0  0  0  0  0
  -15.2300  -43.0550   24.9650 C   0  0  0  0  0  0  0  0  0  0  0  0
  -15.9290  -43.0460   26.1640 C   0  0  0  0  0  0  0  0  0  0  0  0
  -17.2510  -42.6570   26.2720 C   0  0  0  0  0  0  0  0  0  0  0  0
  -17.9030  -42.2580   25.1020 C   0  0  0  0  0  0  0  0  0  0  0  0
  -19.2130  -41.8450   25.0530 O   0  0  0  0  0  0  0  0  0  0  0  0
  -19.9050  -41.6850   26.2820 C   0  0  0  0  0  0  0  0  0  0  0  0
  -15.0340  -43.4980   27.2180 C   0  0  0  0  0  0  0  0  0  0  0  0
  -15.3170  -43.5560   28.4020 O   0  0  0  0  0  0  0  0  0  0  0  0
  -13.6950  -43.8820   26.6170 C   0  0  2  0  0  0  0  0  0  0  0  0
  -12.5650  -43.1640   27.3680 C   0  0  0  0  0  0  0  0  0  0  0  0
  -11.5210  -44.1170   27.9890 C   0  0  0  0  0  0  0  0  0  0  0  0
  -10.8830  -43.4830   29.2320 C   0  0  0  0  0  0  0  0  0  0  0  0
  -11.8330  -43.3430   30.4230 C   0  0  0  0  0  0  0  0  0  0  0  0
  -12.8360  -44.4700   30.4670 N   0  0  0  0  0  0  0  0  0  0  0  0
  -13.4800  -44.6650   31.8280 C   0  0  0  0  0  0  0  0  0  0  0  0
  -14.1180  -43.4460   32.4420 C   0  0  0  0  0  0  0  0  0  0  0  0
  -13.6250  -42.9030   33.6390 C   0  0  0  0  0  0  0  0  0  0  0  0
  -14.2090  -41.7650   34.1980 C   0  0  0  0  0  0  0  0  0  0  0  0
  -15.2960  -41.1610   33.5740 C   0  0  0  0  0  0  0  0  0  0  0  0
  -15.8070  -41.6960   32.3950 C   0  0  0  0  0  0  0  0  0  0  0  0
  -15.2250  -42.8340   31.8330 C   0  0  0  0  0  0  0  0  0  0  0  0
  -12.3170  -45.7330   29.8450 C   0  0  0  0  0  0  0  0  0  0  0  0
  -12.1180  -45.4980   28.3460 C   0  0  0  0  0  0  0  0  0  0  0  0
  -13.8080  -43.4950   25.1250 C   0  0  0  0  0  0  0  0  0  0  0  0
  -17.1420  -39.9410   22.7396 H   0  0  0  0  0  0  0  0  0  0  0  0
  -16.6235  -41.0278   21.4066 H   0  0  0  0  0  0  0  0  0  0  0  0
  -18.2803  -40.3338   21.4066 H   0  0  0  0  0  0  0  0  0  0  0  0
  -15.3236  -42.6581   22.8389 H   0  0  0  0  0  0  0  0  0  0  0  0
  -17.7701  -42.6613   27.2418 H   0  0  0  0  0  0  0  0  0  0  0  0
  -19.2089  -41.8459   27.1184 H   0  0  0  0  0  0  0  0  0  0  0  0
  -20.3189  -40.6675   26.3400 H   0  0  0  0  0  0  0  0  0  0  0  0
  -20.7235  -42.4176   26.3400 H   0  0  0  0  0  0  0  0  0  0  0  0
  -13.4532  -44.9515   26.7051 H   0  0  0  0  0  0  0  0  0  0  0  0
  -12.0485  -42.4978   26.6614 H   0  0  0  0  0  0  0  0  0  0  0  0
  -13.0324  -42.6171   28.2002 H   0  0  0  0  0  0  0  0  0  0  0  0
  -10.7474  -44.2814   27.2245 H   0  0  0  0  0  0  0  0  0  0  0  0
  -10.0329  -44.1091   29.5407 H   0  0  0  0  0  0  0  0  0  0  0  0
  -10.5812  -42.4643   28.9473 H   0  0  0  0  0  0  0  0  0  0  0  0
  -11.2446  -43.3519   31.3523 H   0  0  0  0  0  0  0  0  0  0  0  0
  -12.3827  -42.3962   30.3161 H   0  0  0  0  0  0  0  0  0  0  0  0
  -13.6250  -44.1740   29.8770 H   0  0  0  0  0  0  0  0  0  0  0  0
  -14.2586  -45.4350   31.7238 H   0  0  0  0  0  0  0  0  0  0  0  0
  -12.6588  -44.9409   32.5058 H   0  0  0  0  0  0  0  0  0  0  0  0
  -12.7700  -43.3790   34.1414 H   0  0  0  0  0  0  0  0  0  0  0  0
  -13.8093  -41.3453   35.1329 H   0  0  0  0  0  0  0  0  0  0  0  0
  -15.7515  -40.2608   34.0123 H   0  0  0  0  0  0  0  0  0  0  0  0
  -16.6704  -41.2217   31.9054 H   0  0  0  0  0  0  0  0  0  0  0  0
  -15.6378  -43.2550   30.9043 H   0  0  0  0  0  0  0  0  0  0  0  0
  -11.3568  -46.0055   30.3073 H   0  0  0  0  0  0  0  0  0  0  0  0
  -13.0356  -46.5506   30.0033 H   0  0  0  0  0  0  0  0  0  0  0  0
  -11.4402  -46.2751   27.9631 H   0  0  0  0  0  0  0  0  0  0  0  0
  -13.1170  -45.5359   27.8872 H   0  0  0  0  0  0  0  0  0  0  0  0
  -13.1164  -42.6750   24.8814 H   0  0  0  0  0  0  0  0  0  0  0  0
  -13.5467  -44.3263   24.4537 H   0  0  0  0  0  0  0  0  0  0  0  0
  1  2  1  0
  2  3  1  0
  3  4  2  0
  4  5  1  0
  5  6  2  0
  6  7  1  0
  7  8  2  0
  8  9  1  0
  9 10  1  0
  6 11  1  0
 11 12  2  0
 11 13  1  0
 13 14  1  0
 14 15  1  0
 15 16  1  0
 16 17  1  0
 17 18  1  0
 18 19  1  0
 19 20  1  0
 20 21  2  0
 21 22  1  0
 22 23  2  0
 23 24  1  0
 24 25  2  0
 18 26  1  0
 26 27  1  0
 13 28  1  0
  8  3  1  0
 27 15  1  0
 28  5  1  0
 25 20  1  0
  1 29  1  0
  1 30  1  0
  1 31  1  0
  4 32  1  0
  7 33  1  0
 10 34  1  0
 10 35  1  0
 10 36  1  0
 13 37  1  6
 14 38  1  0
 14 39  1  0
 15 40  1  0
 16 41  1  0
 16 42  1  0
 17 43  1  0
 17 44  1  0
 18 45  1  0
 19 46  1  0
 19 47  1  0
 21 48  1  0
 22 49  1  0
 23 50  1  0
 24 51  1  0
 25 52  1  0
 26 53  1  0
 26 54  1  0
 27 55  1  0
 27 56  1  0
 28 57  1  0
 28 58  1  0
M  CHG  1  18   1
M  END
>  <meeko>  (6) 
{"is_sidechain": false}

>  <vina_kcal_mol>  (6) 
-10.738

>  <rmsd_cristal>  (6) 
4.16

$$$$
pose 7
     RDKit          3D

 58 61  0  0  0  0  0  0  0  0999 V2000
  -10.7680  -42.3570   33.6700 C   0  0  0  0  0  0  0  0  0  0  0  0
  -10.0550  -43.4950   33.2070 O   0  0  0  0  0  0  0  0  0  0  0  0
  -10.5010  -44.1150   32.0660 C   0  0  0  0  0  0  0  0  0  0  0  0
  -11.8350  -44.0930   31.6290 C   0  0  0  0  0  0  0  0  0  0  0  0
  -12.1650  -44.7570   30.4570 C   0  0  0  0  0  0  0  0  0  0  0  0
  -11.1790  -45.4230   29.7430 C   0  0  0  0  0  0  0  0  0  0  0  0
   -9.8540  -45.4670   30.1340 C   0  0  0  0  0  0  0  0  0  0  0  0
   -9.5080  -44.8040   31.3140 C   0  0  0  0  0  0  0  0  0  0  0  0
   -8.2340  -44.7600   31.8280 O   0  0  0  0  0  0  0  0  0  0  0  0
   -7.3230  -45.7740   31.4300 C   0  0  0  0  0  0  0  0  0  0  0  0
  -11.7920  -46.0210   28.5670 C   0  0  0  0  0  0  0  0  0  0  0  0
  -11.1940  -46.6320   27.6980 O   0  0  0  0  0  0  0  0  0  0  0  0
  -13.2870  -45.7660   28.5870 C   0  0  2  0  0  0  0  0  0  0  0  0
  -13.7270  -45.1560   27.2490 C   0  0  0  0  0  0  0  0  0  0  0  0
  -14.0090  -43.6400   27.3150 C   0  0  0  0  0  0  0  0  0  0  0  0
  -13.3310  -42.9130   26.1450 C   0  0  0  0  0  0  0  0  0  0  0  0
  -13.9420  -43.2210   24.7760 C   0  0  0  0  0  0  0  0  0  0  0  0
  -15.4290  -43.4660   24.8750 N   0  0  0  0  0  0  0  0  0  0  0  0
  -16.1660  -43.3090   23.5570 C   0  0  0  0  0  0  0  0  0  0  0  0
  -17.4950  -42.6040   23.6200 C   0  0  0  0  0  0  0  0  0  0  0  0
  -18.4650  -42.9830   24.5620 C   0  0  0  0  0  0  0  0  0  0  0  0
  -19.6910  -42.3200   24.6270 C   0  0  0  0  0  0  0  0  0  0  0  0
  -19.9670  -41.2770   23.7480 C   0  0  0  0  0  0  0  0  0  0  0  0
  -19.0230  -40.9000   22.7960 C   0  0  0  0  0  0  0  0  0  0  0  0
  -17.7960  -41.5620   22.7290 C   0  0  0  0  0  0  0  0  0  0  0  0
  -16.0610  -42.7370   26.0250 C   0  0  0  0  0  0  0  0  0  0  0  0
  -15.5210  -43.3170   27.3340 C   0  0  0  0  0  0  0  0  0  0  0  0
  -13.5110  -44.8420   29.8070 C   0  0  0  0  0  0  0  0  0  0  0  0
  -10.7726  -42.3497   34.7700 H   0  0  0  0  0  0  0  0  0  0  0  0
  -10.2807  -41.4432   33.2993 H   0  0  0  0  0  0  0  0  0  0  0  0
  -11.8029  -42.3969   33.2993 H   0  0  0  0  0  0  0  0  0  0  0  0
  -12.6045  -43.5588   32.2057 H   0  0  0  0  0  0  0  0  0  0  0  0
   -9.1006  -46.0036   29.5387 H   0  0  0  0  0  0  0  0  0  0  0  0
   -6.8935  -46.2520   32.3228 H   0  0  0  0  0  0  0  0  0  0  0  0
   -7.8530  -46.5280   30.8295 H   0  0  0  0  0  0  0  0  0  0  0  0
   -6.5168  -45.3275   30.8295 H   0  0  0  0  0  0  0  0  0  0  0  0
  -13.8967  -46.6755   28.6928 H   0  0  0  0  0  0  0  0  0  0  0  0
  -12.9296  -45.3281   26.5111 H   0  0  0  0  0  0  0  0  0  0  0  0
  -14.6725  -45.6447   26.9711 H   0  0  0  0  0  0  0  0  0  0  0  0
  -13.5854  -43.2808   28.2645 H   0  0  0  0  0  0  0  0  0  0  0  0
  -13.4075  -41.8299   26.3211 H   0  0  0  0  0  0  0  0  0  0  0  0
  -12.2901  -43.2673   26.1134 H   0  0  0  0  0  0  0  0  0  0  0  0
  -13.7644  -42.3674   24.1053 H   0  0  0  0  0  0  0  0  0  0  0  0
  -13.4677  -44.1328   24.3841 H   0  0  0  0  0  0  0  0  0  0  0  0
  -15.5410  -44.4670   25.0870 H   0  0  0  0  0  0  0  0  0  0  0  0
  -15.5165  -42.7411   22.8746 H   0  0  0  0  0  0  0  0  0  0  0  0
  -16.3904  -44.3320   23.2208 H   0  0  0  0  0  0  0  0  0  0  0  0
  -18.2562  -43.8109   25.2556 H   0  0  0  0  0  0  0  0  0  0  0  0
  -20.4401  -42.6220   25.3738 H   0  0  0  0  0  0  0  0  0  0  0  0
  -20.9310  -40.7502   23.8051 H   0  0  0  0  0  0  0  0  0  0  0  0
  -19.2444  -40.0803   22.0967 H   0  0  0  0  0  0  0  0  0  0  0  0
  -17.0574  -41.2641   21.9702 H   0  0  0  0  0  0  0  0  0  0  0  0
  -15.8135  -41.6669   25.9650 H   0  0  0  0  0  0  0  0  0  0  0  0
  -17.1540  -42.8554   25.9869 H   0  0  0  0  0  0  0  0  0  0  0  0
  -15.7067  -42.5873   28.1359 H   0  0  0  0  0  0  0  0  0  0  0  0
  -16.0435  -44.2718   27.4929 H   0  0  0  0  0  0  0  0  0  0  0  0
  -13.8521  -43.8470   29.4851 H   0  0  0  0  0  0  0  0  0  0  0  0
  -14.2842  -45.2255   30.4890 H   0  0  0  0  0  0  0  0  0  0  0  0
  1  2  1  0
  2  3  1  0
  3  4  2  0
  4  5  1  0
  5  6  2  0
  6  7  1  0
  7  8  2  0
  8  9  1  0
  9 10  1  0
  6 11  1  0
 11 12  2  0
 11 13  1  0
 13 14  1  0
 14 15  1  0
 15 16  1  0
 16 17  1  0
 17 18  1  0
 18 19  1  0
 19 20  1  0
 20 21  2  0
 21 22  1  0
 22 23  2  0
 23 24  1  0
 24 25  2  0
 18 26  1  0
 26 27  1  0
 13 28  1  0
  8  3  1  0
 27 15  1  0
 28  5  1  0
 25 20  1  0
  1 29  1  0
  1 30  1  0
  1 31  1  0
  4 32  1  0
  7 33  1  0
 10 34  1  0
 10 35  1  0
 10 36  1  0
 13 37  1  1
 14 38  1  0
 14 39  1  0
 15 40  1  0
 16 41  1  0
 16 42  1  0
 17 43  1  0
 17 44  1  0
 18 45  1  0
 19 46  1  0
 19 47  1  0
 21 48  1  0
 22 49  1  0
 23 50  1  0
 24 51  1  0
 25 52  1  0
 26 53  1  0
 26 54  1  0
 27 55  1  0
 27 56  1  0
 28 57  1  0
 28 58  1  0
M  CHG  1  18   1
M  END
>  <meeko>  (7) 
{"is_sidechain": false}

>  <vina_kcal_mol>  (7) 
-10.059

>  <rmsd_cristal>  (7) 
9.84

$$$$
pose 8
     RDKit          3D

 58 61  0  0  0  0  0  0  0  0999 V2000
  -23.7400  -41.8860   27.4310 C   0  0  0  0  0  0  0  0  0  0  0  0
  -23.0820  -40.7390   26.9110 O   0  0  0  0  0  0  0  0  0  0  0  0
  -22.0020  -40.9340   26.0860 C   0  0  0  0  0  0  0  0  0  0  0  0
  -20.7630  -41.4350   26.5180 C   0  0  0  0  0  0  0  0  0  0  0  0
  -19.7450  -41.5900   25.5890 C   0  0  0  0  0  0  0  0  0  0  0  0
  -19.9680  -41.2520   24.2620 C   0  0  0  0  0  0  0  0  0  0  0  0
  -21.1720  -40.7600   23.7930 C   0  0  0  0  0  0  0  0  0  0  0  0
  -22.2050  -40.5970   24.7180 C   0  0  0  0  0  0  0  0  0  0  0  0
  -23.4550  -40.1200   24.4010 O   0  0  0  0  0  0  0  0  0  0  0  0
  -23.5600  -39.1950   23.3290 C   0  0  0  0  0  0  0  0  0  0  0  0
  -18.7480  -41.5150   23.5130 C   0  0  0  0  0  0  0  0  0  0  0  0
  -18.6210  -41.3770   22.3080 O   0  0  0  0  0  0  0  0  0  0  0  0
  -17.6620  -41.9870   24.4600 C   0  0  2  0  0  0  0  0  0  0  0  0
  -17.0510  -43.2950   23.9380 C   0  0  0  0  0  0  0  0  0  0  0  0
  -15.5180  -43.2450   23.7640 C   0  0  0  0  0  0  0  0  0  0  0  0
  -14.9060  -42.1850   24.6920 C   0  0  0  0  0  0  0  0  0  0  0  0
  -14.9780  -42.5360   26.1790 C   0  0  0  0  0  0  0  0  0  0  0  0
  -14.8670  -44.0250   26.4030 N   0  0  0  0  0  0  0  0  0  0  0  0
  -14.4610  -44.4040   27.8170 C   0  0  0  0  0  0  0  0  0  0  0  0
  -13.0320  -44.8420   28.0020 C   0  0  0  0  0  0  0  0  0  0  0  0
  -12.0240  -43.9040   28.2780 C   0  0  0  0  0  0  0  0  0  0  0  0
  -10.7030  -44.3140   28.4630 C   0  0  0  0  0  0  0  0  0  0  0  0
  -10.3710  -45.6620   28.3670 C   0  0  0  0  0  0  0  0  0  0  0  0
  -11.3560  -46.6020   28.0770 C   0  0  0  0  0  0  0  0  0  0  0  0
  -12.6780  -46.1950   27.8920 C   0  0  0  0  0  0  0  0  0  0  0  0
  -14.0790  -44.7160   25.3290 C   0  0  0  0  0  0  0  0  0  0  0  0
  -14.8480  -44.6150   24.0110 C   0  0  0  0  0  0  0  0  0  0  0  0
  -18.3660  -42.1210   25.8300 C   0  0  0  0  0  0  0  0  0  0  0  0
  -23.7209  -41.8528   28.5303 H   0  0  0  0  0  0  0  0  0  0  0  0
  -24.7833  -41.8997   27.0826 H   0  0  0  0  0  0  0  0  0  0  0  0
  -23.2252  -42.7935   27.0826 H   0  0  0  0  0  0  0  0  0  0  0  0
  -20.6030  -41.6995   27.5737 H   0  0  0  0  0  0  0  0  0  0  0  0
  -21.3107  -40.5067   22.7316 H   0  0  0  0  0  0  0  0  0  0  0  0
  -23.6754  -38.1781   23.7322 H   0  0  0  0  0  0  0  0  0  0  0  0
  -22.6505  -39.2438   22.7122 H   0  0  0  0  0  0  0  0  0  0  0  0
  -24.4354  -39.4464   22.7122 H   0  0  0  0  0  0  0  0  0  0  0  0
  -16.8103  -41.2962   24.5464 H   0  0  0  0  0  0  0  0  0  0  0  0
  -17.2925  -44.0981   24.6498 H   0  0  0  0  0  0  0  0  0  0  0  0
  -17.4795  -43.4711   22.9403 H   0  0  0  0  0  0  0  0  0  0  0  0
  -15.3256  -42.9712   22.7161 H   0  0  0  0  0  0  0  0  0  0  0  0
  -13.8482  -42.0567   24.4187 H   0  0  0  0  0  0  0  0  0  0  0  0
  -15.4961  -41.2668   24.5552 H   0  0  0  0  0  0  0  0  0  0  0  0
  -14.1532  -42.0331   26.7051 H   0  0  0  0  0  0  0  0  0  0  0  0
  -15.9518  -42.2009   26.5656 H   0  0  0  0  0  0  0  0  0  0  0  0
  -15.8230  -44.3970   26.3280 H   0  0  0  0  0  0  0  0  0  0  0  0
  -14.6301  -43.5285   28.4611 H   0  0  0  0  0  0  0  0  0  0  0  0
  -15.0740  -45.2801   28.0752 H   0  0  0  0  0  0  0  0  0  0  0  0
  -12.2781  -42.8361   28.3490 H   0  0  0  0  0  0  0  0  0  0  0  0
   -9.9231  -43.5707   28.6850 H   0  0  0  0  0  0  0  0  0  0  0  0
   -9.3306  -45.9847   28.5202 H   0  0  0  0  0  0  0  0  0  0  0  0
  -11.0920  -47.6666   27.9936 H   0  0  0  0  0  0  0  0  0  0  0  0
  -13.4502  -46.9426   27.6576 H   0  0  0  0  0  0  0  0  0  0  0  0
  -13.0968  -44.2324   25.2219 H   0  0  0  0  0  0  0  0  0  0  0  0
  -13.9312  -45.7730   25.5954 H   0  0  0  0  0  0  0  0  0  0  0  0
  -14.1448  -44.8071   23.1872 H   0  0  0  0  0  0  0  0  0  0  0  0
  -15.6598  -45.3553   24.0647 H   0  0  0  0  0  0  0  0  0  0  0  0
  -18.4034  -43.1734   26.1479 H   0  0  0  0  0  0  0  0  0  0  0  0
  -17.8395  -41.5780   26.6287 H   0  0  0  0  0  0  0  0  0  0  0  0
  1  2  1  0
  2  3  1  0
  3  4  2  0
  4  5  1  0
  5  6  2  0
  6  7  1  0
  7  8  2  0
  8  9  1  0
  9 10  1  0
  6 11  1  0
 11 12  2  0
 11 13  1  0
 13 14  1  0
 14 15  1  0
 15 16  1  0
 16 17  1  0
 17 18  1  0
 18 19  1  0
 19 20  1  0
 20 21  2  0
 21 22  1  0
 22 23  2  0
 23 24  1  0
 24 25  2  0
 18 26  1  0
 26 27  1  0
 13 28  1  0
  8  3  1  0
 27 15  1  0
 28  5  1  0
 25 20  1  0
  1 29  1  0
  1 30  1  0
  1 31  1  0
  4 32  1  0
  7 33  1  0
 10 34  1  0
 10 35  1  0
 10 36  1  0
 13 37  1  1
 14 38  1  0
 14 39  1  0
 15 40  1  0
 16 41  1  0
 16 42  1  0
 17 43  1  0
 17 44  1  0
 18 45  1  0
 19 46  1  0
 19 47  1  0
 21 48  1  0
 22 49  1  0
 23 50  1  0
 24 51  1  0
 25 52  1  0
 26 53  1  0
 26 54  1  0
 27 55  1  0
 27 56  1  0
 28 57  1  0
 28 58  1  0
M  CHG  1  18   1
M  END
>  <meeko>  (8) 
{"is_sidechain": false}

>  <vina_kcal_mol>  (8) 
-9.827

>  <rmsd_cristal>  (8) 
4.5

$$$$
pose 9
     RDKit          3D

 58 61  0  0  0  0  0  0  0  0999 V2000
  -14.5790  -41.6960   34.1030 C   0  0  0  0  0  0  0  0  0  0  0  0
  -13.5080  -42.6270   34.0400 O   0  0  0  0  0  0  0  0  0  0  0  0
  -13.1340  -43.0970   32.8050 C   0  0  0  0  0  0  0  0  0  0  0  0
  -13.9670  -43.8530   31.9670 C   0  0  0  0  0  0  0  0  0  0  0  0
  -13.4770  -44.2720   30.7390 C   0  0  0  0  0  0  0  0  0  0  0  0
  -12.1830  -43.9360   30.3650 C   0  0  0  0  0  0  0  0  0  0  0  0
  -11.3300  -43.1910   31.1570 C   0  0  0  0  0  0  0  0  0  0  0  0
  -11.8110  -42.7650   32.3980 C   0  0  0  0  0  0  0  0  0  0  0  0
  -11.0820  -42.0180   33.2910 O   0  0  0  0  0  0  0  0  0  0  0  0
   -9.8790  -42.5780   33.7970 C   0  0  0  0  0  0  0  0  0  0  0  0
  -11.9310  -44.4920   29.0440 C   0  0  0  0  0  0  0  0  0  0  0  0
  -10.9080  -44.3350   28.4000 O   0  0  0  0  0  0  0  0  0  0  0  0
  -13.1370  -45.2940   28.5910 C   0  0  2  0  0  0  0  0  0  0  0  0
  -13.5720  -44.8310   27.1930 C   0  0  0  0  0  0  0  0  0  0  0  0
  -13.9930  -43.3470   27.1290 C   0  0  0  0  0  0  0  0  0  0  0  0
  -13.4320  -42.6820   25.8630 C   0  0  0  0  0  0  0  0  0  0  0  0
  -14.0650  -43.1780   24.5610 C   0  0  0  0  0  0  0  0  0  0  0  0
  -15.5170  -43.5440   24.7550 N   0  0  0  0  0  0  0  0  0  0  0  0
  -16.3160  -43.5850   23.4640 C   0  0  0  0  0  0  0  0  0  0  0  0
  -17.5090  -42.6680   23.3930 C   0  0  0  0  0  0  0  0  0  0  0  0
  -18.6090  -42.8540   24.2460 C   0  0  0  0  0  0  0  0  0  0  0  0
  -19.7070  -41.9950   24.1870 C   0  0  0  0  0  0  0  0  0  0  0  0
  -19.7250  -40.9460   23.2720 C   0  0  0  0  0  0  0  0  0  0  0  0
  -18.6490  -40.7590   22.4080 C   0  0  0  0  0  0  0  0  0  0  0  0
  -17.5490  -41.6160   22.4650 C   0  0  0  0  0  0  0  0  0  0  0  0
  -16.1690  -42.7650   25.8590 C   0  0  0  0  0  0  0  0  0  0  0  0
  -15.5260  -43.1620   27.1890 C   0  0  0  0  0  0  0  0  0  0  0  0
  -14.1980  -45.0630   29.6920 C   0  0  0  0  0  0  0  0  0  0  0  0
  -14.8207  -41.4859   35.1553 H   0  0  0  0  0  0  0  0  0  0  0  0
  -14.2836  -40.7628   33.6012 H   0  0  0  0  0  0  0  0  0  0  0  0
  -15.4620  -42.1184   33.6012 H   0  0  0  0  0  0  0  0  0  0  0  0
  -14.9905  -44.1090   32.2782 H   0  0  0  0  0  0  0  0  0  0  0  0
  -10.3116  -42.9429   30.8234 H   0  0  0  0  0  0  0  0  0  0  0  0
   -9.9034  -42.5666   34.8967 H   0  0  0  0  0  0  0  0  0  0  0  0
   -9.7799  -43.6148   33.4431 H   0  0  0  0  0  0  0  0  0  0  0  0
   -9.0219  -41.9863   33.4431 H   0  0  0  0  0  0  0  0  0  0  0  0
  -12.9448  -46.3715   28.4809 H   0  0  0  0  0  0  0  0  0  0  0  0
  -12.7309  -44.9827   26.5005 H   0  0  0  0  0  0  0  0  0  0  0  0
  -14.4560  -45.4260   26.9200 H   0  0  0  0  0  0  0  0  0  0  0  0
  -13.5694  -42.8583   28.0188 H   0  0  0  0  0  0  0  0  0  0  0  0
  -13.6024  -41.5979   25.9383 H   0  0  0  0  0  0  0  0  0  0  0  0
  -12.3645  -42.9433   25.8152 H   0  0  0  0  0  0  0  0  0  0  0  0
  -13.9950  -42.3829   23.8041 H   0  0  0  0  0  0  0  0  0  0  0  0
  -13.5231  -44.0781   24.2352 H   0  0  0  0  0  0  0  0  0  0  0  0
  -15.5250  -44.5250   25.0650 H   0  0  0  0  0  0  0  0  0  0  0  0
  -15.6375  -43.3180   22.6404 H   0  0  0  0  0  0  0  0  0  0  0  0
  -16.7234  -44.6048   23.4012 H   0  0  0  0  0  0  0  0  0  0  0  0
  -18.6050  -43.6845   24.9673 H   0  0  0  0  0  0  0  0  0  0  0  0
  -20.5600  -42.1470   24.8648 H   0  0  0  0  0  0  0  0  0  0  0  0
  -20.5883  -40.2655   23.2315 H   0  0  0  0  0  0  0  0  0  0  0  0
  -18.6661  -39.9348   21.6797 H   0  0  0  0  0  0  0  0  0  0  0  0
  -16.7050  -41.4654   21.7758 H   0  0  0  0  0  0  0  0  0  0  0  0
  -16.0259  -41.6882   25.6861 H   0  0  0  0  0  0  0  0  0  0  0  0
  -17.2467  -42.9840   25.8849 H   0  0  0  0  0  0  0  0  0  0  0  0
  -15.7488  -42.3768   27.9264 H   0  0  0  0  0  0  0  0  0  0  0  0
  -15.9490  -44.1401   27.4616 H   0  0  0  0  0  0  0  0  0  0  0  0
  -15.0538  -44.4967   29.2960 H   0  0  0  0  0  0  0  0  0  0  0  0
  -14.6086  -46.0049   30.0848 H   0  0  0  0  0  0  0  0  0  0  0  0
  1  2  1  0
  2  3  1  0
  3  4  2  0
  4  5  1  0
  5  6  2  0
  6  7  1  0
  7  8  2  0
  8  9  1  0
  9 10  1  0
  6 11  1  0
 11 12  2  0
 11 13  1  0
 13 14  1  0
 14 15  1  0
 15 16  1  0
 16 17  1  0
 17 18  1  0
 18 19  1  0
 19 20  1  0
 20 21  2  0
 21 22  1  0
 22 23  2  0
 23 24  1  0
 24 25  2  0
 18 26  1  0
 26 27  1  0
 13 28  1  0
  8  3  1  0
 27 15  1  0
 28  5  1  0
 25 20  1  0
  1 29  1  0
  1 30  1  0
  1 31  1  0
  4 32  1  0
  7 33  1  0
 10 34  1  0
 10 35  1  0
 10 36  1  0
 13 37  1  6
 14 38  1  0
 14 39  1  0
 15 40  1  0
 16 41  1  0
 16 42  1  0
 17 43  1  0
 17 44  1  0
 18 45  1  0
 19 46  1  0
 19 47  1  0
 21 48  1  0
 22 49  1  0
 23 50  1  0
 24 51  1  0
 25 52  1  0
 26 53  1  0
 26 54  1  0
 27 55  1  0
 27 56  1  0
 28 57  1  0
 28 58  1  0
M  CHG  1  18   1
M  END
>  <meeko>  (9) 
{"is_sidechain": false}

>  <vina_kcal_mol>  (9) 
-9.541

>  <rmsd_cristal>  (9) 
9.38

$$$$
