alprazolam
     RDKit          3D

 35 38  0  0  0  0  0  0  0  0999 V2000
  141.7260  125.4400  124.8260 C   0  0  0  0  0  0  0  0  0  0  0  0
  143.1100  125.5550  125.3430 C   0  0  0  0  0  0  0  0  0  0  0  0
  143.4120  125.7850  126.6050 N   0  0  0  0  0  0  0  0  0  0  0  0
  144.7670  125.6810  126.7500 N   0  0  0  0  0  0  0  0  0  0  0  0
  145.2780  125.3920  125.5730 C   0  0  0  0  0  0  0  0  0  0  0  0
  144.2780  125.3400  124.6260 N   0  0  0  0  0  0  0  0  0  0  0  0
  144.4770  125.1880  123.2300 C   0  0  0  0  0  0  0  0  0  0  0  0
  143.6420  125.8830  122.3370 C   0  0  0  0  0  0  0  0  0  0  0  0
  143.8740  125.8280  120.9600 C   0  0  0  0  0  0  0  0  0  0  0  0
  144.9470  125.0940  120.4670 C   0  0  0  0  0  0  0  0  0  0  0  0
  145.2410  125.0440  118.7740 Cl  0  0  0  0  0  0  0  0  0  0  0  0
  145.7830  124.3980  121.3360 C   0  0  0  0  0  0  0  0  0  0  0  0
  145.5450  124.4200  122.7210 C   0  0  0  0  0  0  0  0  0  0  0  0
  146.4160  123.5470  123.5760 C   0  0  0  0  0  0  0  0  0  0  0  0
  146.6860  122.1450  123.1180 C   0  0  0  0  0  0  0  0  0  0  0  0
  145.6540  121.3200  122.6510 C   0  0  0  0  0  0  0  0  0  0  0  0
  145.9370  120.0180  122.2340 C   0  0  0  0  0  0  0  0  0  0  0  0
  147.2430  119.5340  122.2920 C   0  0  0  0  0  0  0  0  0  0  0  0
  148.2700  120.3440  122.7750 C   0  0  0  0  0  0  0  0  0  0  0  0
  147.9920  121.6460  123.1930 C   0  0  0  0  0  0  0  0  0  0  0  0
  146.9590  123.9090  124.6880 N   0  0  0  0  0  0  0  0  0  0  0  0
  146.7090  125.2380  125.2310 C   0  0  0  0  0  0  0  0  0  0  0  0
  141.0230  125.3816  125.6700 H   0  0  0  0  0  0  0  0  0  0  0  0
  141.4895  126.3216  124.2121 H   0  0  0  0  0  0  0  0  0  0  0  0
  141.6382  124.5315  124.2121 H   0  0  0  0  0  0  0  0  0  0  0  0
  142.7998  126.4745  122.7254 H   0  0  0  0  0  0  0  0  0  0  0  0
  143.2088  126.3645  120.2674 H   0  0  0  0  0  0  0  0  0  0  0  0
  146.6345  123.8277  120.9364 H   0  0  0  0  0  0  0  0  0  0  0  0
  144.6217  121.6980  122.6130 H   0  0  0  0  0  0  0  0  0  0  0  0
  145.1284  119.3733  121.8592 H   0  0  0  0  0  0  0  0  0  0  0  0
  147.4639  118.5102  121.9558 H   0  0  0  0  0  0  0  0  0  0  0  0
  149.2984  119.9570  122.8265 H   0  0  0  0  0  0  0  0  0  0  0  0
  148.8008  122.2818  123.5823 H   0  0  0  0  0  0  0  0  0  0  0  0
  147.3160  125.3798  126.1373 H   0  0  0  0  0  0  0  0  0  0  0  0
  146.9792  125.9900  124.4751 H   0  0  0  0  0  0  0  0  0  0  0  0
  1  2  1  0
  2  3  2  0
  3  4  1  0
  4  5  2  0
  5  6  1  0
  6  7  1  0
  7  8  2  0
  8  9  1  0
  9 10  2  0
 10 11  1  0
 10 12  1  0
 12 13  2  0
 13 14  1  0
 14 15  1  0
 15 16  2  0
 16 17  1  0
 17 18  2  0
 18 19  1  0
 19 20  2  0
 14 21  2  0
 21 22  1  0
  6  2  1  0
 13  7  1  0
 20 15  1  0
 22  5  1  0
  1 23  1  0
  1 24  1  0
  1 25  1  0
  8 26  1  0
  9 27  1  0
 12 28  1  0
 16 29  1  0
 17 30  1  0
 18 31  1  0
 19 32  1  0
 20 33  1  0
 22 34  1  0
 22 35  1  0
M  END
>  <meeko>  (1) 
{"is_sidechain": false}

>  <vina_kcal_mol>  (1) 
-9.051

$$$$
