clonazepam
     RDKit          3D

 32 34  0  0  0  0  0  0  0  0999 V2000
  146.6810  119.3560  122.8620 O   0  0  0  0  0  0  0  0  0  0  0  0
  146.6190  120.5550  122.5840 C   0  0  0  0  0  0  0  0  0  0  0  0
  147.5610  121.5850  123.1770 C   0  0  0  0  0  0  0  0  0  0  0  0
  146.8240  122.5700  123.9540 N   0  0  0  0  0  0  0  0  0  0  0  0
  146.0560  123.4090  123.3530 C   0  0  0  0  0  0  0  0  0  0  0  0
  145.3580  124.3940  124.2200 C   0  0  0  0  0  0  0  0  0  0  0  0
  146.1430  125.2090  125.0450 C   0  0  0  0  0  0  0  0  0  0  0  0
  145.5310  126.1540  125.8670 C   0  0  0  0  0  0  0  0  0  0  0  0
  144.1420  126.2890  125.8620 C   0  0  0  0  0  0  0  0  0  0  0  0
  143.3600  125.4790  125.0330 C   0  0  0  0  0  0  0  0  0  0  0  0
  143.9660  124.5310  124.2050 C   0  0  0  0  0  0  0  0  0  0  0  0
  142.9490  123.5230  123.2400 Cl  0  0  0  0  0  0  0  0  0  0  0  0
  145.7580  123.4440  121.8880 C   0  0  0  0  0  0  0  0  0  0  0  0
  145.5660  124.6990  121.2800 C   0  0  0  0  0  0  0  0  0  0  0  0
  145.1140  124.7770  119.9570 C   0  0  0  0  0  0  0  0  0  0  0  0
  144.9070  126.0910  119.3320 N   0  0  0  0  0  0  0  0  0  0  0  0
  144.8240  126.1330  118.0970 O   0  0  0  0  0  0  0  0  0  0  0  0
  144.8230  127.0750  120.0790 O   0  0  0  0  0  0  0  0  0  0  0  0
  144.8350  123.6150  119.2340 C   0  0  0  0  0  0  0  0  0  0  0  0
  145.0370  122.3700  119.8340 C   0  0  0  0  0  0  0  0  0  0  0  0
  145.5320  122.2710  121.1450 C   0  0  0  0  0  0  0  0  0  0  0  0
  145.7380  120.9680  121.6200 N   0  0  0  0  0  0  0  0  0  0  0  0
  148.2851  121.0775  123.8313 H   0  0  0  0  0  0  0  0  0  0  0  0
  148.0827  122.1002  122.3570 H   0  0  0  0  0  0  0  0  0  0  0  0
  147.2380  125.1039  125.0444 H   0  0  0  0  0  0  0  0  0  0  0  0
  146.1432  126.7936  126.5198 H   0  0  0  0  0  0  0  0  0  0  0  0
  143.6611  127.0347  126.5121 H   0  0  0  0  0  0  0  0  0  0  0  0
  142.2655  125.5884  125.0328 H   0  0  0  0  0  0  0  0  0  0  0  0
  145.7714  125.6201  121.8452 H   0  0  0  0  0  0  0  0  0  0  0  0
  144.4598  123.6797  118.2020 H   0  0  0  0  0  0  0  0  0  0  0  0
  144.8051  121.4535  119.2717 H   0  0  0  0  0  0  0  0  0  0  0  0
  145.3150  120.1880  121.1310 H   0  0  0  0  0  0  0  0  0  0  0  0
  1  2  2  0
  2  3  1  0
  3  4  1  0
  4  5  2  0
  5  6  1  0
  6  7  2  0
  7  8  1  0
  8  9  2  0
  9 10  1  0
 10 11  2  0
 11 12  1  0
  5 13  1  0
 13 14  1  0
 14 15  2  0
 15 16  1  0
 16 17  2  0
 16 18  1  0
 15 19  1  0
 19 20  2  0
 20 21  1  0
 21 22  1  0
 22  2  1  0
 11  6  1  0
 21 13  2  0
  3 23  1  0
  3 24  1  0
  7 25  1  0
  8 26  1  0
  9 27  1  0
 10 28  1  0
 14 29  1  0
 19 30  1  0
 20 31  1  0
 22 32  1  0
M  CHG  2  16   1  18  -1
M  END
>  <meeko>  (1) 
{"is_sidechain": false}

>  <vina_kcal_mol>  (1) 
-8.267

$$$$
