diazepam
     RDKit          3D

 33 35  0  0  0  0  0  0  0  0999 V2000
  144.4460  119.7960  120.6120 C   0  0  0  0  0  0  0  0  0  0  0  0
  145.3290  120.8130  121.1700 N   0  0  0  0  0  0  0  0  0  0  0  0
  146.3120  120.3680  122.0610 C   0  0  0  0  0  0  0  0  0  0  0  0
  146.3980  119.1860  122.4100 O   0  0  0  0  0  0  0  0  0  0  0  0
  147.3480  121.3900  122.5250 C   0  0  0  0  0  0  0  0  0  0  0  0
  146.7150  122.3620  123.4090 N   0  0  0  0  0  0  0  0  0  0  0  0
  145.8880  123.2040  122.8890 C   0  0  0  0  0  0  0  0  0  0  0  0
  145.2010  124.1550  123.8210 C   0  0  0  0  0  0  0  0  0  0  0  0
  145.9700  124.8850  124.7360 C   0  0  0  0  0  0  0  0  0  0  0  0
  145.3540  125.7780  125.6150 C   0  0  0  0  0  0  0  0  0  0  0  0
  143.9690  125.9350  125.5910 C   0  0  0  0  0  0  0  0  0  0  0  0
  143.1960  125.1960  124.6950 C   0  0  0  0  0  0  0  0  0  0  0  0
  143.8080  124.3020  123.8140 C   0  0  0  0  0  0  0  0  0  0  0  0
  145.5880  123.2860  121.4290 C   0  0  0  0  0  0  0  0  0  0  0  0
  145.5820  124.5690  120.8510 C   0  0  0  0  0  0  0  0  0  0  0  0
  145.1990  124.7360  119.5250 C   0  0  0  0  0  0  0  0  0  0  0  0
  145.1770  126.3060  118.8290 Cl  0  0  0  0  0  0  0  0  0  0  0  0
  144.8220  123.6360  118.7650 C   0  0  0  0  0  0  0  0  0  0  0  0
  144.8520  122.3560  119.3300 C   0  0  0  0  0  0  0  0  0  0  0  0
  145.2620  122.1490  120.6620 C   0  0  0  0  0  0  0  0  0  0  0  0
  143.9637  119.2405  121.4298 H   0  0  0  0  0  0  0  0  0  0  0  0
  143.6758  120.2789  119.9926 H   0  0  0  0  0  0  0  0  0  0  0  0
  145.0322  119.1012  119.9926 H   0  0  0  0  0  0  0  0  0  0  0  0
  148.1545  120.8737  123.0663 H   0  0  0  0  0  0  0  0  0  0  0  0
  147.7655  121.9097  121.6501 H   0  0  0  0  0  0  0  0  0  0  0  0
  147.0619  124.7545  124.7622 H   0  0  0  0  0  0  0  0  0  0  0  0
  145.9612  126.3574  126.3261 H   0  0  0  0  0  0  0  0  0  0  0  0
  143.4847  126.6428  126.2798 H   0  0  0  0  0  0  0  0  0  0  0  0
  142.1028  125.3178  124.6825 H   0  0  0  0  0  0  0  0  0  0  0  0
  143.1963  123.7133  123.1146 H   0  0  0  0  0  0  0  0  0  0  0  0
  145.8811  125.4419  121.4498 H   0  0  0  0  0  0  0  0  0  0  0  0
  144.5007  123.7707  117.7216 H   0  0  0  0  0  0  0  0  0  0  0  0
  144.5487  121.4920  118.7204 H   0  0  0  0  0  0  0  0  0  0  0  0
  1  2  1  0
  2  3  1  0
  3  4  2  0
  3  5  1  0
  5  6  1  0
  6  7  2  0
  7  8  1  0
  8  9  2  0
  9 10  1  0
 10 11  2  0
 11 12  1  0
 12 13  2  0
  7 14  1  0
 14 15  1  0
 15 16  2  0
 16 17  1  0
 16 18  1  0
 18 19  2  0
 19 20  1  0
 20  2  1  0
 13  8  1  0
 20 14  2  0
  1 21  1  0
  1 22  1  0
  1 23  1  0
  5 24  1  0
  5 25  1  0
  9 26  1  0
 10 27  1  0
 11 28  1  0
 12 29  1  0
 13 30  1  0
 15 31  1  0
 18 32  1  0
 19 33  1  0
M  END
>  <meeko>  (1) 
{"is_sidechain": false}

>  <vina_kcal_mol>  (1) 
-8.024

$$$$
