flumazenilo
     RDKit          3D

 36 38  0  0  0  0  0  0  0  0999 V2000
  147.8960  127.4520  126.9320 C   0  0  0  0  0  0  0  0  0  0  0  0
  146.5030  126.9640  126.5830 C   0  0  0  0  0  0  0  0  0  0  0  0
  146.6260  125.7200  125.8890 O   0  0  0  0  0  0  0  0  0  0  0  0
  145.7510  125.5590  124.8530 C   0  0  0  0  0  0  0  0  0  0  0  0
  144.8890  126.3790  124.5480 O   0  0  0  0  0  0  0  0  0  0  0  0
  145.9490  124.2920  124.1430 C   0  0  0  0  0  0  0  0  0  0  0  0
  146.9060  123.3590  124.5000 N   0  0  0  0  0  0  0  0  0  0  0  0
  146.7800  122.3750  123.6410 C   0  0  0  0  0  0  0  0  0  0  0  0
  145.7980  122.6130  122.7090 N   0  0  0  0  0  0  0  0  0  0  0  0
  145.2280  123.8180  123.0560 C   0  0  0  0  0  0  0  0  0  0  0  0
  144.0460  124.3460  122.3520 C   0  0  0  0  0  0  0  0  0  0  0  0
  144.4640  124.6620  121.0090 N   0  0  0  0  0  0  0  0  0  0  0  0
  144.4390  126.0640  120.6230 C   0  0  0  0  0  0  0  0  0  0  0  0
  144.7280  123.6920  120.0570 C   0  0  0  0  0  0  0  0  0  0  0  0
  144.8940  123.9630  118.8690 O   0  0  0  0  0  0  0  0  0  0  0  0
  144.8240  122.2530  120.4560 C   0  0  0  0  0  0  0  0  0  0  0  0
  144.4320  121.3370  119.4610 C   0  0  0  0  0  0  0  0  0  0  0  0
  144.6120  119.9740  119.6460 C   0  0  0  0  0  0  0  0  0  0  0  0
  144.2290  119.1200  118.6890 F   0  0  0  0  0  0  0  0  0  0  0  0
  145.1960  119.4830  120.8030 C   0  0  0  0  0  0  0  0  0  0  0  0
  145.6000  120.3710  121.8010 C   0  0  0  0  0  0  0  0  0  0  0  0
  145.4040  121.7590  121.6450 C   0  0  0  0  0  0  0  0  0  0  0  0
  148.0075  127.4911  128.0256 H   0  0  0  0  0  0  0  0  0  0  0  0
  148.6423  126.7618  126.5117 H   0  0  0  0  0  0  0  0  0  0  0  0
  148.0484  128.4571  126.5117 H   0  0  0  0  0  0  0  0  0  0  0  0
  145.9173  126.8208  127.5030 H   0  0  0  0  0  0  0  0  0  0  0  0
  145.9891  127.7027  125.9504 H   0  0  0  0  0  0  0  0  0  0  0  0
  147.3921  121.4613  123.6642 H   0  0  0  0  0  0  0  0  0  0  0  0
  143.2485  123.5886  122.3315 H   0  0  0  0  0  0  0  0  0  0  0  0
  143.6506  125.2374  122.8610 H   0  0  0  0  0  0  0  0  0  0  0  0
  144.4278  126.6927  121.5256 H   0  0  0  0  0  0  0  0  0  0  0  0
  145.3331  126.2959  120.0257 H   0  0  0  0  0  0  0  0  0  0  0  0
  143.5371  126.2638  120.0257 H   0  0  0  0  0  0  0  0  0  0  0  0
  143.9791  121.7055  118.5288 H   0  0  0  0  0  0  0  0  0  0  0  0
  145.3402  118.4004  120.9339 H   0  0  0  0  0  0  0  0  0  0  0  0
  146.0746  119.9858  122.7155 H   0  0  0  0  0  0  0  0  0  0  0  0
  1  2  1  0
  2  3  1  0
  3  4  1  0
  4  5  2  0
  4  6  1  0
  6  7  1  0
  7  8  2  0
  8  9  1  0
  9 10  1  0
 10 11  1  0
 11 12  1  0
 12 13  1  0
 12 14  1  0
 14 15  2  0
 14 16  1  0
 16 17  2  0
 17 18  1  0
 18 19  1  0
 18 20  2  0
 20 21  1  0
 21 22  2  0
 10  6  2  0
 22 16  1  0
 22  9  1  0
  1 23  1  0
  1 24  1  0
  1 25  1  0
  2 26  1  0
  2 27  1  0
  8 28  1  0
 11 29  1  0
 11 30  1  0
 13 31  1  0
 13 32  1  0
 13 33  1  0
 17 34  1  0
 20 35  1  0
 21 36  1  0
M  END
>  <meeko>  (1) 
{"is_sidechain": false}

>  <vina_kcal_mol>  (1) 
-8.553

$$$$
