flunitrazepam
     RDKit          3D

 35 37  0  0  0  0  0  0  0  0999 V2000
  144.9970  119.9110  121.0670 C   0  0  0  0  0  0  0  0  0  0  0  0
  145.7560  121.0490  121.5710 N   0  0  0  0  0  0  0  0  0  0  0  0
  146.8060  120.7600  122.4520 C   0  0  0  0  0  0  0  0  0  0  0  0
  147.0460  119.6130  122.8390 O   0  0  0  0  0  0  0  0  0  0  0  0
  147.7130  121.9180  122.8570 C   0  0  0  0  0  0  0  0  0  0  0  0
  146.9780  122.8260  123.7340 N   0  0  0  0  0  0  0  0  0  0  0  0
  146.0320  123.5350  123.2160 C   0  0  0  0  0  0  0  0  0  0  0  0
  145.2490  124.4050  124.1460 C   0  0  0  0  0  0  0  0  0  0  0  0
  145.9360  125.1940  125.0780 C   0  0  0  0  0  0  0  0  0  0  0  0
  145.2290  126.0120  125.9640 C   0  0  0  0  0  0  0  0  0  0  0  0
  143.8330  126.0400  125.9300 C   0  0  0  0  0  0  0  0  0  0  0  0
  143.1450  125.2430  125.0170 C   0  0  0  0  0  0  0  0  0  0  0  0
  143.8520  124.4270  124.1360 C   0  0  0  0  0  0  0  0  0  0  0  0
  143.1530  123.6570  123.2890 F   0  0  0  0  0  0  0  0  0  0  0  0
  145.7000  123.5400  121.7610 C   0  0  0  0  0  0  0  0  0  0  0  0
  145.5230  124.7980  121.1510 C   0  0  0  0  0  0  0  0  0  0  0  0
  145.0880  124.8730  119.8260 C   0  0  0  0  0  0  0  0  0  0  0  0
  144.8830  126.1840  119.1960 N   0  0  0  0  0  0  0  0  0  0  0  0
  144.8040  126.2210  117.9610 O   0  0  0  0  0  0  0  0  0  0  0  0
  144.8000  127.1710  119.9390 O   0  0  0  0  0  0  0  0  0  0  0  0
  144.8350  123.7070  119.1010 C   0  0  0  0  0  0  0  0  0  0  0  0
  145.0440  122.4610  119.7040 C   0  0  0  0  0  0  0  0  0  0  0  0
  145.5050  122.3500  121.0310 C   0  0  0  0  0  0  0  0  0  0  0  0
  144.6071  119.3265  121.9134 H   0  0  0  0  0  0  0  0  0  0  0  0
  144.1584  120.2723  120.4537 H   0  0  0  0  0  0  0  0  0  0  0  0
  145.6528  119.2756  120.4537 H   0  0  0  0  0  0  0  0  0  0  0  0
  148.5929  121.5265  123.3885 H   0  0  0  0  0  0  0  0  0  0  0  0
  148.0403  122.4603  121.9577 H   0  0  0  0  0  0  0  0  0  0  0  0
  147.0352  125.1697  125.1126 H   0  0  0  0  0  0  0  0  0  0  0  0
  145.7731  126.6348  126.6893 H   0  0  0  0  0  0  0  0  0  0  0  0
  143.2777  126.6898  126.6224 H   0  0  0  0  0  0  0  0  0  0  0  0
  142.0454  125.2580  124.9918 H   0  0  0  0  0  0  0  0  0  0  0  0
  145.7270  125.7188  121.7172 H   0  0  0  0  0  0  0  0  0  0  0  0
  144.4741  123.7669  118.0636 H   0  0  0  0  0  0  0  0  0  0  0  0
  144.8434  121.5458  119.1276 H   0  0  0  0  0  0  0  0  0  0  0  0
  1  2  1  0
  2  3  1  0
  3  4  2  0
  3  5  1  0
  5  6  1  0
  6  7  2  0
  7  8  1  0
  8  9  2  0
  9 10  1  0
 10 11  2  0
 11 12  1  0
 12 13  2  0
 13 14  1  0
  7 15  1  0
 15 16  1  0
 16 17  2  0
 17 18  1  0
 18 19  2  0
 18 20  1  0
 17 21  1  0
 21 22  2  0
 22 23  1  0
 23  2  1  0
 13  8  1  0
 23 15  2  0
  1 24  1  0
  1 25  1  0
  1 26  1  0
  5 27  1  0
  5 28  1  0
  9 29  1  0
 10 30  1  0
 11 31  1  0
 12 32  1  0
 16 33  1  0
 21 34  1  0
 22 35  1  0
M  CHG  2  18   1  20  -1
M  END
>  <meeko>  (1) 
{"is_sidechain": false}

>  <vina_kcal_mol>  (1) 
-8.068

$$$$
