lorazepam
     RDKit          3D

 31 33  0  0  0  0  0  0  0  0999 V2000
  143.3260  118.6250  120.2060 O   0  0  0  0  0  0  0  0  0  0  0  0
  144.2490  119.4400  120.2740 C   0  0  0  0  0  0  0  0  0  0  0  0
  145.2180  119.2750  121.2300 N   0  0  0  0  0  0  0  0  0  0  0  0
  146.2980  120.1300  121.4980 C   0  0  0  0  0  0  0  0  0  0  0  0
  147.4280  119.5400  122.0800 C   0  0  0  0  0  0  0  0  0  0  0  0
  148.5730  120.2970  122.3380 C   0  0  0  0  0  0  0  0  0  0  0  0
  148.5890  121.6520  122.0300 C   0  0  0  0  0  0  0  0  0  0  0  0
  150.0010  122.5830  122.3370 Cl  0  0  0  0  0  0  0  0  0  0  0  0
  147.4600  122.2670  121.4920 C   0  0  0  0  0  0  0  0  0  0  0  0
  146.2970  121.5150  121.2490 C   0  0  0  0  0  0  0  0  0  0  0  0
  145.0540  122.2510  120.8620 C   0  0  0  0  0  0  0  0  0  0  0  0
  144.7700  123.5600  121.5220 C   0  0  0  0  0  0  0  0  0  0  0  0
  144.5440  123.5370  122.9070 C   0  0  0  0  0  0  0  0  0  0  0  0
  144.2550  124.7200  123.5900 C   0  0  0  0  0  0  0  0  0  0  0  0
  144.2000  125.9280  122.8980 C   0  0  0  0  0  0  0  0  0  0  0  0
  144.4480  125.9590  121.5240 C   0  0  0  0  0  0  0  0  0  0  0  0
  144.7410  124.7790  120.8310 C   0  0  0  0  0  0  0  0  0  0  0  0
  145.0960  124.9140  119.1470 Cl  0  0  0  0  0  0  0  0  0  0  0  0
  144.1930  121.8620  119.9830 N   0  0  0  0  0  0  0  0  0  0  0  0
  144.4180  120.6150  119.2720 C   0  0  0  0  0  0  0  0  0  0  0  0
  143.5310  120.4570  118.1770 O   0  0  0  0  0  0  0  0  0  0  0  0
  145.1680  118.3770  121.6950 H   0  0  0  0  0  0  0  0  0  0  0  0
  147.4131  118.4703  122.3361 H   0  0  0  0  0  0  0  0  0  0  0  0
  149.4595  119.8221  122.7837 H   0  0  0  0  0  0  0  0  0  0  0  0
  147.4787  123.3415  121.2573 H   0  0  0  0  0  0  0  0  0  0  0  0
  144.5947  122.5849  123.4556 H   0  0  0  0  0  0  0  0  0  0  0  0
  144.0708  124.6983  124.6742 H   0  0  0  0  0  0  0  0  0  0  0  0
  143.9610  126.8582  123.4344 H   0  0  0  0  0  0  0  0  0  0  0  0
  144.4128  126.9163  120.9834 H   0  0  0  0  0  0  0  0  0  0  0  0
  145.4367  120.6260  118.8571 H   0  0  0  0  0  0  0  0  0  0  0  0
  143.7270  119.5610  117.8500 H   0  0  0  0  0  0  0  0  0  0  0  0
  1  2  2  0
  2  3  1  0
  3  4  1  0
  4  5  1  0
  5  6  2  0
  6  7  1  0
  7  8  1  0
  7  9  2  0
  9 10  1  0
 10 11  1  0
 11 12  1  0
 12 13  2  0
 13 14  1  0
 14 15  2  0
 15 16  1  0
 16 17  2  0
 17 18  1  0
 11 19  2  0
 19 20  1  0
 20 21  1  0
 20  2  1  0
 10  4  2  0
 17 12  1  0
  3 22  1  0
  5 23  1  0
  6 24  1  0
  9 25  1  0
 13 26  1  0
 14 27  1  0
 15 28  1  0
 16 29  1  0
 20 30  1  0
 21 31  1  0
M  END
>  <meeko>  (1) 
{"is_sidechain": false}

>  <vina_kcal_mol>  (1) 
-7.897

$$$$
