midazolam
     RDKit          3D

 36 39  0  0  0  0  0  0  0  0999 V2000
  144.1260  119.8090  120.1110 C   0  0  0  0  0  0  0  0  0  0  0  0
  145.3240  119.9930  120.9720 C   0  0  0  0  0  0  0  0  0  0  0  0
  145.9380  118.9910  121.5750 N   0  0  0  0  0  0  0  0  0  0  0  0
  146.8680  119.5610  122.3930 C   0  0  0  0  0  0  0  0  0  0  0  0
  146.8500  120.9300  122.2750 C   0  0  0  0  0  0  0  0  0  0  0  0
  145.8750  121.2180  121.3410 N   0  0  0  0  0  0  0  0  0  0  0  0
  145.5790  122.5220  120.8580 C   0  0  0  0  0  0  0  0  0  0  0  0
  145.2270  122.6920  119.5080 C   0  0  0  0  0  0  0  0  0  0  0  0
  144.9840  123.9670  118.9930 C   0  0  0  0  0  0  0  0  0  0  0  0
  145.1010  125.0800  119.8170 C   0  0  0  0  0  0  0  0  0  0  0  0
  144.8100  126.6490  119.1770 Cl  0  0  0  0  0  0  0  0  0  0  0  0
  145.4530  124.9330  121.1560 C   0  0  0  0  0  0  0  0  0  0  0  0
  145.6880  123.6540  121.6930 C   0  0  0  0  0  0  0  0  0  0  0  0
  145.9600  123.5710  123.1640 C   0  0  0  0  0  0  0  0  0  0  0  0
  145.1220  124.4040  124.0630 C   0  0  0  0  0  0  0  0  0  0  0  0
  145.7320  125.2810  124.9660 C   0  0  0  0  0  0  0  0  0  0  0  0
  144.9390  126.0670  125.8050 C   0  0  0  0  0  0  0  0  0  0  0  0
  143.5460  125.9780  125.7410 C   0  0  0  0  0  0  0  0  0  0  0  0
  142.9420  125.1030  124.8350 C   0  0  0  0  0  0  0  0  0  0  0  0
  143.7320  124.3200  123.9970 C   0  0  0  0  0  0  0  0  0  0  0  0
  143.1300  123.4580  123.1670 F   0  0  0  0  0  0  0  0  0  0  0  0
  146.8420  122.8190  123.7270 N   0  0  0  0  0  0  0  0  0  0  0  0
  147.6840  121.9670  122.9080 C   0  0  0  0  0  0  0  0  0  0  0  0
  143.2369  119.6724  120.7441 H   0  0  0  0  0  0  0  0  0  0  0  0
  143.9910  120.6969  119.4759 H   0  0  0  0  0  0  0  0  0  0  0  0
  144.2637  118.9215  119.4759 H   0  0  0  0  0  0  0  0  0  0  0  0
  147.5418  119.0006  123.0578 H   0  0  0  0  0  0  0  0  0  0  0  0
  145.1422  121.8134  118.8516 H   0  0  0  0  0  0  0  0  0  0  0  0
  144.7005  124.0902  117.9373 H   0  0  0  0  0  0  0  0  0  0  0  0
  145.5479  125.8216  121.7975 H   0  0  0  0  0  0  0  0  0  0  0  0
  146.8287  125.3511  125.0150 H   0  0  0  0  0  0  0  0  0  0  0  0
  145.4123  126.7580  126.5181 H   0  0  0  0  0  0  0  0  0  0  0  0
  142.9246  126.5974  126.4045 H   0  0  0  0  0  0  0  0  0  0  0  0
  141.8455  125.0326  124.7836 H   0  0  0  0  0  0  0  0  0  0  0  0
  148.1738  122.5713  122.1302 H   0  0  0  0  0  0  0  0  0  0  0  0
  148.4527  121.4923  123.5355 H   0  0  0  0  0  0  0  0  0  0  0  0
  1  2  1  0
  2  3  2  0
  3  4  1  0
  4  5  2  0
  5  6  1  0
  6  7  1  0
  7  8  2  0
  8  9  1  0
  9 10  2  0
 10 11  1  0
 10 12  1  0
 12 13  2  0
 13 14  1  0
 14 15  1  0
 15 16  2  0
 16 17  1  0
 17 18  2  0
 18 19  1  0
 19 20  2  0
 20 21  1  0
 14 22  2  0
 22 23  1  0
  6  2  1  0
 13  7  1  0
 20 15  1  0
 23  5  1  0
  1 24  1  0
  1 25  1  0
  1 26  1  0
  4 27  1  0
  8 28  1  0
  9 29  1  0
 12 30  1  0
 16 31  1  0
 17 32  1  0
 18 33  1  0
 19 34  1  0
 23 35  1  0
 23 36  1  0
M  END
>  <meeko>  (1) 
{"is_sidechain": false}

>  <vina_kcal_mol>  (1) 
-10.981

$$$$
