zolpidem
     RDKit          3D

 44 46  0  0  0  0  0  0  0  0999 V2000
  144.7590  117.6570  118.3950 C   0  0  0  0  0  0  0  0  0  0  0  0
  144.7090  118.8540  119.2980 C   0  0  0  0  0  0  0  0  0  0  0  0
  145.3020  118.8080  120.5660 C   0  0  0  0  0  0  0  0  0  0  0  0
  145.2250  119.9080  121.4240 C   0  0  0  0  0  0  0  0  0  0  0  0
  144.5540  121.0680  121.0260 C   0  0  0  0  0  0  0  0  0  0  0  0
  144.4860  122.1980  121.9290 C   0  0  0  0  0  0  0  0  0  0  0  0
  143.3140  122.5830  122.5290 N   0  0  0  0  0  0  0  0  0  0  0  0
  143.6320  123.6130  123.2810 C   0  0  0  0  0  0  0  0  0  0  0  0
  142.8310  124.4320  124.1230 C   0  0  0  0  0  0  0  0  0  0  0  0
  143.3930  125.4470  124.8070 C   0  0  0  0  0  0  0  0  0  0  0  0
  144.8210  125.7330  124.7150 C   0  0  0  0  0  0  0  0  0  0  0  0
  145.3630  126.8680  125.5260 C   0  0  0  0  0  0  0  0  0  0  0  0
  145.5790  124.9570  123.9170 C   0  0  0  0  0  0  0  0  0  0  0  0
  144.9910  123.9080  123.2050 N   0  0  0  0  0  0  0  0  0  0  0  0
  145.5490  122.9940  122.3260 C   0  0  0  0  0  0  0  0  0  0  0  0
  147.0040  122.9480  121.9840 C   0  0  0  0  0  0  0  0  0  0  0  0
  147.7790  121.9720  122.8760 C   0  0  0  0  0  0  0  0  0  0  0  0
  147.3330  121.5870  123.9600 O   0  0  0  0  0  0  0  0  0  0  0  0
  149.0400  121.5750  122.4250 N   0  0  0  0  0  0  0  0  0  0  0  0
  149.7280  120.5220  123.1540 C   0  0  0  0  0  0  0  0  0  0  0  0
  149.5600  121.8800  121.1000 C   0  0  0  0  0  0  0  0  0  0  0  0
  143.9340  121.1060  119.7720 C   0  0  0  0  0  0  0  0  0  0  0  0
  144.0110  120.0050  118.9140 C   0  0  0  0  0  0  0  0  0  0  0  0
  144.7973  116.7408  119.0025 H   0  0  0  0  0  0  0  0  0  0  0  0
  143.8608  117.6388  117.7602 H   0  0  0  0  0  0  0  0  0  0  0  0
  145.6556  117.7138  117.7602 H   0  0  0  0  0  0  0  0  0  0  0  0
  145.8320  117.8997  120.8886 H   0  0  0  0  0  0  0  0  0  0  0  0
  145.6947  119.8610  122.4176 H   0  0  0  0  0  0  0  0  0  0  0  0
  141.7525  124.2367  124.2158 H   0  0  0  0  0  0  0  0  0  0  0  0
  142.7602  126.0757  125.4507 H   0  0  0  0  0  0  0  0  0  0  0  0
  145.2536  126.6389  126.5963 H   0  0  0  0  0  0  0  0  0  0  0  0
  146.4274  127.0126  125.2889 H   0  0  0  0  0  0  0  0  0  0  0  0
  144.8064  127.7867  125.2889 H   0  0  0  0  0  0  0  0  0  0  0  0
  146.6584  125.1484  123.8258 H   0  0  0  0  0  0  0  0  0  0  0  0
  147.1115  122.6315  120.9360 H   0  0  0  0  0  0  0  0  0  0  0  0
  147.4199  123.9537  122.1438 H   0  0  0  0  0  0  0  0  0  0  0  0
  149.6171  120.6918  124.2351 H   0  0  0  0  0  0  0  0  0  0  0  0
  149.2919  119.5475  122.8892 H   0  0  0  0  0  0  0  0  0  0  0  0
  150.7956  120.5300  122.8892 H   0  0  0  0  0  0  0  0  0  0  0  0
  150.5052  122.4344  121.1957 H   0  0  0  0  0  0  0  0  0  0  0  0
  149.7383  120.9433  120.5515 H   0  0  0  0  0  0  0  0  0  0  0  0
  148.8295  122.4927  120.5515 H   0  0  0  0  0  0  0  0  0  0  0  0
  143.3838  122.0060  119.4601 H   0  0  0  0  0  0  0  0  0  0  0  0
  143.5198  120.0434  117.9305 H   0  0  0  0  0  0  0  0  0  0  0  0
  1  2  1  0
  2  3  1  0
  3  4  2  0
  4  5  1  0
  5  6  1  0
  6  7  1  0
  7  8  2  0
  8  9  1  0
  9 10  2  0
 10 11  1  0
 11 12  1  0
 11 13  2  0
 13 14  1  0
 14 15  1  0
 15 16  1  0
 16 17  1  0
 17 18  2  0
 17 19  1  0
 19 20  1  0
 19 21  1  0
  5 22  2  0
 22 23  1  0
 23  2  2  0
 15  6  2  0
 14  8  1  0
  1 24  1  0
  1 25  1  0
  1 26  1  0
  3 27  1  0
  4 28  1  0
  9 29  1  0
 10 30  1  0
 12 31  1  0
 12 32  1  0
 12 33  1  0
 13 34  1  0
 16 35  1  0
 16 36  1  0
 20 37  1  0
 20 38  1  0
 20 39  1  0
 21 40  1  0
 21 41  1  0
 21 42  1  0
 22 43  1  0
 23 44  1  0
M  END
>  <meeko>  (1) 
{"is_sidechain": false}

>  <vina_kcal_mol>  (1) 
-8.763

$$$$
