citalopram
     RDKit          3D

 46 48  0  0  0  0  0  0  0  0999 V2000
  -34.8130  -23.5260   -1.5950 C   0  0  0  0  0  0  0  0  0  0  0  0
  -34.4220  -23.1400   -0.1920 N   0  0  0  0  0  0  0  0  0  0  0  0
  -35.5550  -22.4120    0.4870 C   0  0  0  0  0  0  0  0  0  0  0  0
  -33.9170  -24.3370    0.5910 C   0  0  0  0  0  0  0  0  0  0  0  0
  -33.7790  -24.0230    2.0810 C   0  0  0  0  0  0  0  0  0  0  0  0
  -32.3810  -23.5080    2.4590 C   0  0  0  0  0  0  0  0  0  0  0  0
  -32.3070  -22.0500    2.9810 C   0  0  0  0  0  0  0  0  0  0  0  0
  -31.0950  -21.8680    3.9060 C   0  0  0  0  0  0  0  0  0  0  0  0
  -31.0730  -22.5150    5.1630 C   0  0  0  0  0  0  0  0  0  0  0  0
  -29.9660  -22.4140    6.0090 C   0  0  0  0  0  0  0  0  0  0  0  0
  -28.8700  -21.6610    5.6120 C   0  0  0  0  0  0  0  0  0  0  0  0
  -27.8020  -21.5770    6.4140 F   0  0  0  0  0  0  0  0  0  0  0  0
  -28.8650  -21.0010    4.3920 C   0  0  0  0  0  0  0  0  0  0  0  0
  -29.9710  -21.1010    3.5430 C   0  0  0  0  0  0  0  0  0  0  0  0
  -33.4980  -21.8960    3.8200 O   0  0  0  0  0  0  0  0  0  0  0  0
  -34.0080  -20.5490    3.6980 C   0  0  0  0  0  0  0  0  0  0  0  0
  -33.5230  -20.1240    2.3630 C   0  0  0  0  0  0  0  0  0  0  0  0
  -33.9270  -19.0340    1.6070 C   0  0  0  0  0  0  0  0  0  0  0  0
  -33.3230  -18.8310    0.3620 C   0  0  0  0  0  0  0  0  0  0  0  0
  -33.7120  -17.7150   -0.4510 C   0  0  0  0  0  0  0  0  0  0  0  0
  -34.0210  -16.8110   -1.1070 N   0  0  0  0  0  0  0  0  0  0  0  0
  -32.3300  -19.7170   -0.0930 C   0  0  0  0  0  0  0  0  0  0  0  0
  -31.9300  -20.8060    0.6900 C   0  0  0  0  0  0  0  0  0  0  0  0
  -32.5300  -20.9980    1.9280 C   0  0  0  0  0  0  0  0  0  0  0  0
  -35.5954  -24.2984   -1.5582 H   0  0  0  0  0  0  0  0  0  0  0  0
  -35.1955  -22.6416   -2.1255 H   0  0  0  0  0  0  0  0  0  0  0  0
  -33.9336  -23.9199   -2.1255 H   0  0  0  0  0  0  0  0  0  0  0  0
  -33.6550  -22.4610   -0.2850 H   0  0  0  0  0  0  0  0  0  0  0  0
  -35.4376  -22.4874    1.5781 H   0  0  0  0  0  0  0  0  0  0  0  0
  -35.5413  -21.3532    0.1891 H   0  0  0  0  0  0  0  0  0  0  0  0
  -36.5124  -22.8644    0.1891 H   0  0  0  0  0  0  0  0  0  0  0  0
  -34.6259  -25.1688    0.4665 H   0  0  0  0  0  0  0  0  0  0  0  0
  -32.9225  -24.6041    0.2041 H   0  0  0  0  0  0  0  0  0  0  0  0
  -34.5196  -23.2545    2.3474 H   0  0  0  0  0  0  0  0  0  0  0  0
  -33.9443  -24.9608    2.6317 H   0  0  0  0  0  0  0  0  0  0  0  0
  -31.9818  -24.1664    3.2445 H   0  0  0  0  0  0  0  0  0  0  0  0
  -31.8015  -23.5159    1.5241 H   0  0  0  0  0  0  0  0  0  0  0  0
  -31.9431  -23.1085    5.4804 H   0  0  0  0  0  0  0  0  0  0  0  0
  -29.9631  -22.9272    6.9820 H   0  0  0  0  0  0  0  0  0  0  0  0
  -27.9931  -20.4005    4.0934 H   0  0  0  0  0  0  0  0  0  0  0  0
  -29.9633  -20.5732    2.5779 H   0  0  0  0  0  0  0  0  0  0  0  0
  -35.1071  -20.5378    3.7405 H   0  0  0  0  0  0  0  0  0  0  0  0
  -33.6746  -19.8858    4.5098 H   0  0  0  0  0  0  0  0  0  0  0  0
  -34.7023  -18.3469    1.9769 H   0  0  0  0  0  0  0  0  0  0  0  0
  -31.8626  -19.5523   -1.0750 H   0  0  0  0  0  0  0  0  0  0  0  0
  -31.1538  -21.4979    0.3312 H   0  0  0  0  0  0  0  0  0  0  0  0
  1  2  1  0
  2  3  1  0
  2  4  1  0
  4  5  1  0
  5  6  1  0
  6  7  1  0
  7  8  1  0
  8  9  1  0
  9 10  2  0
 10 11  1  0
 11 12  1  0
 11 13  2  0
 13 14  1  0
  7 15  1  0
 15 16  1  0
 16 17  1  0
 17 18  1  0
 18 19  2  0
 19 20  1  0
 20 21  3  0
 19 22  1  0
 22 23  2  0
 23 24  1  0
 24  7  1  0
 14  8  2  0
 24 17  2  0
  1 25  1  0
  1 26  1  0
  1 27  1  0
  2 28  1  0
  3 29  1  0
  3 30  1  0
  3 31  1  0
  4 32  1  0
  4 33  1  0
  5 34  1  0
  5 35  1  0
  6 36  1  0
  6 37  1  0
  9 38  1  0
 10 39  1  0
 13 40  1  0
 14 41  1  0
 16 42  1  0
 16 43  1  0
 18 44  1  0
 22 45  1  0
 23 46  1  0
M  CHG  1   2   1
M  END
>  <meeko>  (1) 
{"is_sidechain": false}

>  <vina_kcal_mol>  (1) 
-8.955

$$$$
