escitalopram
     RDKit          3D

 46 48  0  0  0  0  0  0  0  0999 V2000
  -34.7990  -21.8100   -0.9420 C   0  0  0  0  0  0  0  0  0  0  0  0
  -34.2510  -23.1740   -0.6160 N   0  0  0  0  0  0  0  0  0  0  0  0
  -34.7580  -24.2030   -1.5930 C   0  0  0  0  0  0  0  0  0  0  0  0
  -34.5030  -23.6020    0.8150 C   0  0  0  0  0  0  0  0  0  0  0  0
  -33.1960  -23.9770    1.5050 C   0  0  0  0  0  0  0  0  0  0  0  0
  -33.0200  -23.1910    2.8180 C   0  0  0  0  0  0  0  0  0  0  0  0
  -32.2480  -21.8590    2.6380 C   0  0  1  0  0  0  0  0  0  0  0  0
  -31.0830  -21.7400    3.6300 C   0  0  0  0  0  0  0  0  0  0  0  0
  -31.1190  -22.3770    4.8870 C   0  0  0  0  0  0  0  0  0  0  0  0
  -30.0640  -22.2470    5.7940 C   0  0  0  0  0  0  0  0  0  0  0  0
  -28.9620  -21.4750    5.4570 C   0  0  0  0  0  0  0  0  0  0  0  0
  -27.9550  -21.3430    6.3300 F   0  0  0  0  0  0  0  0  0  0  0  0
  -28.8940  -20.8330    4.2300 C   0  0  0  0  0  0  0  0  0  0  0  0
  -29.9480  -20.9610    3.3230 C   0  0  0  0  0  0  0  0  0  0  0  0
  -31.7510  -21.8680    1.2640 O   0  0  0  0  0  0  0  0  0  0  0  0
  -31.8990  -20.5540    0.6770 C   0  0  0  0  0  0  0  0  0  0  0  0
  -32.9550  -19.9160    1.4950 C   0  0  0  0  0  0  0  0  0  0  0  0
  -33.6610  -18.7480    1.2420 C   0  0  0  0  0  0  0  0  0  0  0  0
  -34.6270  -18.3420    2.1680 C   0  0  0  0  0  0  0  0  0  0  0  0
  -35.3830  -17.1450    1.9370 C   0  0  0  0  0  0  0  0  0  0  0  0
  -35.9990  -16.1800    1.7460 N   0  0  0  0  0  0  0  0  0  0  0  0
  -34.8650  -19.1090    3.3220 C   0  0  0  0  0  0  0  0  0  0  0  0
  -34.1380  -20.2810    3.5630 C   0  0  0  0  0  0  0  0  0  0  0  0
  -33.1720  -20.6690    2.6430 C   0  0  0  0  0  0  0  0  0  0  0  0
  -35.0162  -21.2695   -0.0089 H   0  0  0  0  0  0  0  0  0  0  0  0
  -34.0572  -21.2472   -1.5276 H   0  0  0  0  0  0  0  0  0  0  0  0
  -35.7240  -21.9168   -1.5276 H   0  0  0  0  0  0  0  0  0  0  0  0
  -33.2310  -23.1280   -0.7500 H   0  0  0  0  0  0  0  0  0  0  0  0
  -35.1786  -25.0566   -1.0412 H   0  0  0  0  0  0  0  0  0  0  0  0
  -35.5384  -23.7548   -2.2255 H   0  0  0  0  0  0  0  0  0  0  0  0
  -33.9271  -24.5488   -2.2255 H   0  0  0  0  0  0  0  0  0  0  0  0
  -34.9747  -22.7724    1.3620 H   0  0  0  0  0  0  0  0  0  0  0  0
  -35.1641  -24.4811    0.8093 H   0  0  0  0  0  0  0  0  0  0  0  0
  -33.2034  -25.0540    1.7286 H   0  0  0  0  0  0  0  0  0  0  0  0
  -32.3611  -23.7287    0.8332 H   0  0  0  0  0  0  0  0  0  0  0  0
  -34.0164  -22.9645    3.2253 H   0  0  0  0  0  0  0  0  0  0  0  0
  -32.4272  -23.8212    3.4973 H   0  0  0  0  0  0  0  0  0  0  0  0
  -31.9930  -22.9872    5.1587 H   0  0  0  0  0  0  0  0  0  0  0  0
  -30.1072  -22.7538    6.7693 H   0  0  0  0  0  0  0  0  0  0  0  0
  -28.0139  -20.2256    3.9722 H   0  0  0  0  0  0  0  0  0  0  0  0
  -29.8921  -20.4456    2.3528 H   0  0  0  0  0  0  0  0  0  0  0  0
  -30.9580  -19.9880    0.7420 H   0  0  0  0  0  0  0  0  0  0  0  0
  -32.1557  -20.5932   -0.3919 H   0  0  0  0  0  0  0  0  0  0  0  0
  -33.4654  -18.1564    0.3355 H   0  0  0  0  0  0  0  0  0  0  0  0
  -35.6301  -18.7850    4.0428 H   0  0  0  0  0  0  0  0  0  0  0  0
  -34.3281  -20.8832    4.4637 H   0  0  0  0  0  0  0  0  0  0  0  0
  1  2  1  0
  2  3  1  0
  2  4  1  0
  4  5  1  0
  5  6  1  0
  7  6  1  1
  7  8  1  0
  8  9  1  0
  9 10  2  0
 10 11  1  0
 11 12  1  0
 11 13  2  0
 13 14  1  0
  7 15  1  0
 15 16  1  0
 16 17  1  0
 17 18  1  0
 18 19  2  0
 19 20  1  0
 20 21  3  0
 19 22  1  0
 22 23  2  0
 23 24  1  0
 24  7  1  0
 14  8  2  0
 24 17  2  0
  1 25  1  0
  1 26  1  0
  1 27  1  0
  2 28  1  0
  3 29  1  0
  3 30  1  0
  3 31  1  0
  4 32  1  0
  4 33  1  0
  5 34  1  0
  5 35  1  0
  6 36  1  0
  6 37  1  0
  9 38  1  0
 10 39  1  0
 13 40  1  0
 14 41  1  0
 16 42  1  0
 16 43  1  0
 18 44  1  0
 22 45  1  0
 23 46  1  0
M  CHG  1   2   1
M  END
>  <meeko>  (1) 
{"is_sidechain": false}

>  <vina_kcal_mol>  (1) 
-9.55

$$$$
