fluoxetina
     RDKit          3D

 41 42  0  0  0  0  0  0  0  0999 V2000
  -35.9290  -24.0150   -0.4710 C   0  0  0  0  0  0  0  0  0  0  0  0
  -35.1270  -24.6780    0.5880 N   0  0  0  0  0  0  0  0  0  0  0  0
  -33.9900  -23.8680    1.1130 C   0  0  0  0  0  0  0  0  0  0  0  0
  -33.7120  -22.6550    0.2250 C   0  0  0  0  0  0  0  0  0  0  0  0
  -32.9450  -21.5280    0.9490 C   0  0  0  0  0  0  0  0  0  0  0  0
  -32.9690  -21.7380    2.3780 O   0  0  0  0  0  0  0  0  0  0  0  0
  -31.8380  -21.6930    3.1460 C   0  0  0  0  0  0  0  0  0  0  0  0
  -30.6500  -21.0310    2.8480 C   0  0  0  0  0  0  0  0  0  0  0  0
  -29.5870  -21.0440    3.7590 C   0  0  0  0  0  0  0  0  0  0  0  0
  -29.6940  -21.7220    4.9810 C   0  0  0  0  0  0  0  0  0  0  0  0
  -28.5510  -21.7160    5.9710 C   0  0  0  0  0  0  0  0  0  0  0  0
  -28.9660  -21.7190    7.2660 F   0  0  0  0  0  0  0  0  0  0  0  0
  -27.7220  -22.7850    5.8340 F   0  0  0  0  0  0  0  0  0  0  0  0
  -27.7700  -20.6110    5.8270 F   0  0  0  0  0  0  0  0  0  0  0  0
  -30.8950  -22.3780    5.2790 C   0  0  0  0  0  0  0  0  0  0  0  0
  -31.9530  -22.3640    4.3680 C   0  0  0  0  0  0  0  0  0  0  0  0
  -33.1930  -20.0910    0.5150 C   0  0  0  0  0  0  0  0  0  0  0  0
  -33.9170  -19.1690    1.2880 C   0  0  0  0  0  0  0  0  0  0  0  0
  -34.1310  -17.8650    0.8320 C   0  0  0  0  0  0  0  0  0  0  0  0
  -33.6330  -17.4640   -0.4060 C   0  0  0  0  0  0  0  0  0  0  0  0
  -32.9240  -18.3660   -1.1910 C   0  0  0  0  0  0  0  0  0  0  0  0
  -32.7100  -19.6690   -0.7390 C   0  0  0  0  0  0  0  0  0  0  0  0
  -36.6972  -23.3799   -0.0057 H   0  0  0  0  0  0  0  0  0  0  0  0
  -35.2697  -23.3947   -1.0960 H   0  0  0  0  0  0  0  0  0  0  0  0
  -36.4143  -24.7792   -1.0960 H   0  0  0  0  0  0  0  0  0  0  0  0
  -35.7480  -24.9610    1.3580 H   0  0  0  0  0  0  0  0  0  0  0  0
  -34.7520  -25.5650    0.2140 H   0  0  0  0  0  0  0  0  0  0  0  0
  -34.2366  -23.5202    2.1270 H   0  0  0  0  0  0  0  0  0  0  0  0
  -33.0906  -24.5012    1.1253 H   0  0  0  0  0  0  0  0  0  0  0  0
  -33.1150  -22.9843   -0.6382 H   0  0  0  0  0  0  0  0  0  0  0  0
  -34.6864  -22.2430   -0.0762 H   0  0  0  0  0  0  0  0  0  0  0  0
  -31.9107  -21.6335    0.5898 H   0  0  0  0  0  0  0  0  0  0  0  0
  -30.5461  -20.4955    1.8928 H   0  0  0  0  0  0  0  0  0  0  0  0
  -28.6548  -20.5147    3.5123 H   0  0  0  0  0  0  0  0  0  0  0  0
  -31.0054  -22.9076    6.2368 H   0  0  0  0  0  0  0  0  0  0  0  0
  -32.8887  -22.8872    4.6143 H   0  0  0  0  0  0  0  0  0  0  0  0
  -34.3206  -19.4765    2.2640 H   0  0  0  0  0  0  0  0  0  0  0  0
  -34.6946  -17.1529    1.4528 H   0  0  0  0  0  0  0  0  0  0  0  0
  -33.8004  -16.4365   -0.7612 H   0  0  0  0  0  0  0  0  0  0  0  0
  -32.5312  -18.0524   -2.1695 H   0  0  0  0  0  0  0  0  0  0  0  0
  -32.1555  -20.3774   -1.3720 H   0  0  0  0  0  0  0  0  0  0  0  0
  1  2  1  0
  2  3  1  0
  3  4  1  0
  4  5  1  0
  5  6  1  0
  6  7  1  0
  7  8  1  0
  8  9  2  0
  9 10  1  0
 10 11  1  0
 11 12  1  0
 11 13  1  0
 11 14  1  0
 10 15  2  0
 15 16  1  0
  5 17  1  0
 17 18  2  0
 18 19  1  0
 19 20  2  0
 20 21  1  0
 21 22  2  0
 16  7  2  0
 22 17  1  0
  1 23  1  0
  1 24  1  0
  1 25  1  0
  2 26  1  0
  2 27  1  0
  3 28  1  0
  3 29  1  0
  4 30  1  0
  4 31  1  0
  5 32  1  0
  8 33  1  0
  9 34  1  0
 15 35  1  0
 16 36  1  0
 18 37  1  0
 19 38  1  0
 20 39  1  0
 21 40  1  0
 22 41  1  0
M  CHG  1   2   1
M  END
>  <meeko>  (1) 
{"is_sidechain": false}

>  <vina_kcal_mol>  (1) 
-9.164

$$$$
