fluvoxamina
     RDKit          3D

 44 44  0  0  0  0  0  0  0  0999 V2000
  -36.0300  -20.7360    2.0410 C   0  0  0  0  0  0  0  0  0  0  0  0
  -35.2660  -19.5830    1.7090 O   0  0  0  0  0  0  0  0  0  0  0  0
  -35.6050  -19.0750    0.4220 C   0  0  0  0  0  0  0  0  0  0  0  0
  -34.3230  -18.5830   -0.2410 C   0  0  0  0  0  0  0  0  0  0  0  0
  -33.0890  -18.8950    0.6010 C   0  0  0  0  0  0  0  0  0  0  0  0
  -32.2760  -20.0350   -0.0110 C   0  0  0  0  0  0  0  0  0  0  0  0
  -32.5610  -21.3550    0.7030 C   0  0  0  0  0  0  0  0  0  0  0  0
  -33.3490  -22.2700    0.2070 N   0  0  0  0  0  0  0  0  0  0  0  0
  -33.8870  -21.8970   -1.0270 O   0  0  0  0  0  0  0  0  0  0  0  0
  -35.1300  -22.5710   -1.1880 C   0  0  0  0  0  0  0  0  0  0  0  0
  -34.8570  -24.0670   -1.1690 C   0  0  0  0  0  0  0  0  0  0  0  0
  -35.5930  -24.7360   -0.0640 N   0  0  0  0  0  0  0  0  0  0  0  0
  -31.9050  -21.6180    2.0300 C   0  0  0  0  0  0  0  0  0  0  0  0
  -30.5940  -21.1660    2.2380 C   0  0  0  0  0  0  0  0  0  0  0  0
  -29.9460  -21.3880    3.4570 C   0  0  0  0  0  0  0  0  0  0  0  0
  -30.6010  -22.0600    4.4990 C   0  0  0  0  0  0  0  0  0  0  0  0
  -29.8880  -22.3180    5.8070 C   0  0  0  0  0  0  0  0  0  0  0  0
  -29.7470  -21.1830    6.5470 F   0  0  0  0  0  0  0  0  0  0  0  0
  -28.6330  -22.8240    5.6430 F   0  0  0  0  0  0  0  0  0  0  0  0
  -30.5520  -23.2050    6.6000 F   0  0  0  0  0  0  0  0  0  0  0  0
  -31.9100  -22.5140    4.2890 C   0  0  0  0  0  0  0  0  0  0  0  0
  -32.5590  -22.2910    3.0690 C   0  0  0  0  0  0  0  0  0  0  0  0
  -36.0932  -20.8314    3.1350 H   0  0  0  0  0  0  0  0  0  0  0  0
  -37.0425  -20.6380    1.6224 H   0  0  0  0  0  0  0  0  0  0  0  0
  -35.5451  -21.6302    1.6224 H   0  0  0  0  0  0  0  0  0  0  0  0
  -36.0584  -19.8714   -0.1864 H   0  0  0  0  0  0  0  0  0  0  0  0
  -36.3289  -18.2518    0.5138 H   0  0  0  0  0  0  0  0  0  0  0  0
  -34.2184  -19.0735   -1.2200 H   0  0  0  0  0  0  0  0  0  0  0  0
  -34.3936  -17.4906   -0.3493 H   0  0  0  0  0  0  0  0  0  0  0  0
  -32.4581  -17.9958    0.6599 H   0  0  0  0  0  0  0  0  0  0  0  0
  -33.4203  -19.2028    1.6037 H   0  0  0  0  0  0  0  0  0  0  0  0
  -32.5415  -20.1361   -1.0737 H   0  0  0  0  0  0  0  0  0  0  0  0
  -31.2067  -19.8010    0.0983 H   0  0  0  0  0  0  0  0  0  0  0  0
  -35.8089  -22.3046   -0.3645 H   0  0  0  0  0  0  0  0  0  0  0  0
  -35.6032  -22.2801   -2.1374 H   0  0  0  0  0  0  0  0  0  0  0  0
  -35.1768  -24.5019   -2.1275 H   0  0  0  0  0  0  0  0  0  0  0  0
  -33.7793  -24.2215   -1.0121 H   0  0  0  0  0  0  0  0  0  0  0  0
  -36.2490  -24.0950    0.4030 H   0  0  0  0  0  0  0  0  0  0  0  0
  -36.1290  -25.5480   -0.3990 H   0  0  0  0  0  0  0  0  0  0  0  0
  -34.9400  -25.0800    0.6520 H   0  0  0  0  0  0  0  0  0  0  0  0
  -30.0693  -20.6306    1.4330 H   0  0  0  0  0  0  0  0  0  0  0  0
  -28.9147  -21.0329    3.5996 H   0  0  0  0  0  0  0  0  0  0  0  0
  -32.4339  -23.0522    5.0927 H   0  0  0  0  0  0  0  0  0  0  0  0
  -33.5899  -22.6470    2.9256 H   0  0  0  0  0  0  0  0  0  0  0  0
  1  2  1  0
  2  3  1  0
  3  4  1  0
  4  5  1  0
  5  6  1  0
  6  7  1  0
  7  8  2  0
  8  9  1  0
  9 10  1  0
 10 11  1  0
 11 12  1  0
  7 13  1  0
 13 14  1  0
 14 15  2  0
 15 16  1  0
 16 17  1  0
 17 18  1  0
 17 19  1  0
 17 20  1  0
 16 21  2  0
 21 22  1  0
 22 13  2  0
  1 23  1  0
  1 24  1  0
  1 25  1  0
  3 26  1  0
  3 27  1  0
  4 28  1  0
  4 29  1  0
  5 30  1  0
  5 31  1  0
  6 32  1  0
  6 33  1  0
 10 34  1  0
 10 35  1  0
 11 36  1  0
 11 37  1  0
 12 38  1  0
 12 39  1  0
 12 40  1  0
 14 41  1  0
 15 42  1  0
 21 43  1  0
 22 44  1  0
M  CHG  1  12   1
M  END
>  <meeko>  (1) 
{"is_sidechain": false}

>  <vina_kcal_mol>  (1) 
-7.954

$$$$
