imipramina
     RDKit          3D

 46 48  0  0  0  0  0  0  0  0999 V2000
  -39.8740  -21.8530    1.7660 C   0  0  0  0  0  0  0  0  0  0  0  0
  -38.8170  -21.7320    2.8220 N   0  0  0  0  0  0  0  0  0  0  0  0
  -39.3940  -21.3780    4.1650 C   0  0  0  0  0  0  0  0  0  0  0  0
  -37.6660  -20.8470    2.4240 C   0  0  0  0  0  0  0  0  0  0  0  0
  -36.3570  -21.3710    3.0160 C   0  0  0  0  0  0  0  0  0  0  0  0
  -35.2170  -21.3900    1.9790 C   0  0  0  0  0  0  0  0  0  0  0  0
  -34.0820  -20.4970    2.3700 N   0  0  0  0  0  0  0  0  0  0  0  0
  -34.1400  -19.2110    1.7390 C   0  0  0  0  0  0  0  0  0  0  0  0
  -34.8700  -18.1380    2.2890 C   0  0  0  0  0  0  0  0  0  0  0  0
  -34.8420  -16.8560    1.7290 C   0  0  0  0  0  0  0  0  0  0  0  0
  -34.0970  -16.6190    0.5850 C   0  0  0  0  0  0  0  0  0  0  0  0
  -33.4080  -17.6690   -0.0120 C   0  0  0  0  0  0  0  0  0  0  0  0
  -33.4370  -18.9620    0.5460 C   0  0  0  0  0  0  0  0  0  0  0  0
  -32.7610  -20.0740   -0.2000 C   0  0  0  0  0  0  0  0  0  0  0  0
  -31.5230  -20.5050    0.5780 C   0  0  0  0  0  0  0  0  0  0  0  0
  -31.6850  -21.1410    1.9440 C   0  0  0  0  0  0  0  0  0  0  0  0
  -30.5250  -21.8340    2.3780 C   0  0  0  0  0  0  0  0  0  0  0  0
  -30.4680  -22.4880    3.6010 C   0  0  0  0  0  0  0  0  0  0  0  0
  -31.5800  -22.4720    4.4150 C   0  0  0  0  0  0  0  0  0  0  0  0
  -32.7400  -21.8130    3.9940 C   0  0  0  0  0  0  0  0  0  0  0  0
  -32.8500  -21.1320    2.7530 C   0  0  0  0  0  0  0  0  0  0  0  0
  -40.8584  -21.9657    2.2438 H   0  0  0  0  0  0  0  0  0  0  0  0
  -39.8718  -20.9487    1.1397 H   0  0  0  0  0  0  0  0  0  0  0  0
  -39.6675  -22.7334    1.1397 H   0  0  0  0  0  0  0  0  0  0  0  0
  -38.4100  -22.6780    2.9400 H   0  0  0  0  0  0  0  0  0  0  0  0
  -38.7453  -21.7760    4.9592 H   0  0  0  0  0  0  0  0  0  0  0  0
  -39.4597  -20.2840    4.2590 H   0  0  0  0  0  0  0  0  0  0  0  0
  -40.3990  -21.8151    4.2590 H   0  0  0  0  0  0  0  0  0  0  0  0
  -37.5856  -20.8293    1.3271 H   0  0  0  0  0  0  0  0  0  0  0  0
  -37.8486  -19.8323    2.8076 H   0  0  0  0  0  0  0  0  0  0  0  0
  -36.0626  -20.7228    3.8546 H   0  0  0  0  0  0  0  0  0  0  0  0
  -36.5271  -22.4050    3.3507 H   0  0  0  0  0  0  0  0  0  0  0  0
  -34.8413  -22.4195    1.8845 H   0  0  0  0  0  0  0  0  0  0  0  0
  -35.6225  -21.0224    1.0248 H   0  0  0  0  0  0  0  0  0  0  0  0
  -35.4809  -18.3140    3.1867 H   0  0  0  0  0  0  0  0  0  0  0  0
  -35.4102  -16.0380    2.1960 H   0  0  0  0  0  0  0  0  0  0  0  0
  -34.0510  -15.6086    0.1526 H   0  0  0  0  0  0  0  0  0  0  0  0
  -32.8329  -17.4875   -0.9319 H   0  0  0  0  0  0  0  0  0  0  0  0
  -33.4504  -20.9254   -0.2993 H   0  0  0  0  0  0  0  0  0  0  0  0
  -32.4709  -19.7290   -1.2034 H   0  0  0  0  0  0  0  0  0  0  0  0
  -30.9860  -21.2302   -0.0511 H   0  0  0  0  0  0  0  0  0  0  0  0
  -31.0096  -19.5563    0.7936 H   0  0  0  0  0  0  0  0  0  0  0  0
  -29.6414  -21.8535    1.7232 H   0  0  0  0  0  0  0  0  0  0  0  0
  -29.5518  -23.0096    3.9148 H   0  0  0  0  0  0  0  0  0  0  0  0
  -31.5555  -22.9758    5.3926 H   0  0  0  0  0  0  0  0  0  0  0  0
  -33.6147  -21.8230    4.6609 H   0  0  0  0  0  0  0  0  0  0  0  0
  1  2  1  0
  2  3  1  0
  2  4  1  0
  4  5  1  0
  5  6  1  0
  6  7  1  0
  7  8  1  0
  8  9  2  0
  9 10  1  0
 10 11  2  0
 11 12  1  0
 12 13  2  0
 13 14  1  0
 14 15  1  0
 15 16  1  0
 16 17  2  0
 17 18  1  0
 18 19  2  0
 19 20  1  0
 20 21  2  0
 21  7  1  0
 13  8  1  0
 21 16  1  0
  1 22  1  0
  1 23  1  0
  1 24  1  0
  2 25  1  0
  3 26  1  0
  3 27  1  0
  3 28  1  0
  4 29  1  0
  4 30  1  0
  5 31  1  0
  5 32  1  0
  6 33  1  0
  6 34  1  0
  9 35  1  0
 10 36  1  0
 11 37  1  0
 12 38  1  0
 14 39  1  0
 14 40  1  0
 15 41  1  0
 15 42  1  0
 17 43  1  0
 18 44  1  0
 19 45  1  0
 20 46  1  0
M  CHG  1   2   1
M  END
>  <meeko>  (1) 
{"is_sidechain": false}

>  <vina_kcal_mol>  (1) 
-6.753

$$$$
