paroxetina
     RDKit          3D

 45 48  0  0  0  0  0  0  0  0999 V2000
  -34.5420  -15.2390    0.6710 F   0  0  0  0  0  0  0  0  0  0  0  0
  -34.3230  -16.5540    0.7830 C   0  0  0  0  0  0  0  0  0  0  0  0
  -34.7790  -17.2320    1.9040 C   0  0  0  0  0  0  0  0  0  0  0  0
  -34.5540  -18.6080    2.0280 C   0  0  0  0  0  0  0  0  0  0  0  0
  -33.8540  -19.3170    1.0400 C   0  0  0  0  0  0  0  0  0  0  0  0
  -33.5700  -20.8200    1.1000 C   0  0  2  0  0  0  0  0  0  0  0  0
  -33.6880  -21.5880   -0.2410 C   0  0  0  0  0  0  0  0  0  0  0  0
  -35.1180  -21.9180   -0.6530 C   0  0  0  0  0  0  0  0  0  0  0  0
  -35.8430  -22.5700    0.4690 N   0  0  0  0  0  0  0  0  0  0  0  0
  -35.8500  -21.7640    1.7250 C   0  0  0  0  0  0  0  0  0  0  0  0
  -34.4170  -21.5190    2.2040 C   0  0  1  0  0  0  0  0  0  0  0  0
  -33.7250  -22.8060    2.6980 C   0  0  0  0  0  0  0  0  0  0  0  0
  -32.3630  -22.7710    2.2780 O   0  0  0  0  0  0  0  0  0  0  0  0
  -31.4330  -22.4040    3.2140 C   0  0  0  0  0  0  0  0  0  0  0  0
  -31.6030  -23.0170    4.4730 C   0  0  0  0  0  0  0  0  0  0  0  0
  -30.7260  -22.7510    5.5300 C   0  0  0  0  0  0  0  0  0  0  0  0
  -29.6960  -21.8690    5.2960 C   0  0  0  0  0  0  0  0  0  0  0  0
  -29.5290  -21.2660    4.0730 C   0  0  0  0  0  0  0  0  0  0  0  0
  -30.3790  -21.5090    3.0120 C   0  0  0  0  0  0  0  0  0  0  0  0
  -28.4550  -20.4310    4.0490 O   0  0  0  0  0  0  0  0  0  0  0  0
  -27.9790  -20.5600    5.4080 C   0  0  0  0  0  0  0  0  0  0  0  0
  -28.7510  -21.4900    6.1950 O   0  0  0  0  0  0  0  0  0  0  0  0
  -33.4330  -18.6020   -0.1020 C   0  0  0  0  0  0  0  0  0  0  0  0
  -33.6570  -17.2290   -0.2260 C   0  0  0  0  0  0  0  0  0  0  0  0
  -35.3170  -16.6888    2.6949 H   0  0  0  0  0  0  0  0  0  0  0  0
  -34.9315  -19.1413    2.9129 H   0  0  0  0  0  0  0  0  0  0  0  0
  -32.5021  -20.8696    1.3591 H   0  0  0  0  0  0  0  0  0  0  0  0
  -33.2356  -20.9715   -1.0317 H   0  0  0  0  0  0  0  0  0  0  0  0
  -33.1720  -22.5491   -0.0992 H   0  0  0  0  0  0  0  0  0  0  0  0
  -35.6388  -20.9896   -0.9302 H   0  0  0  0  0  0  0  0  0  0  0  0
  -35.0925  -22.6073   -1.5099 H   0  0  0  0  0  0  0  0  0  0  0  0
  -36.8210  -22.7310    0.1850 H   0  0  0  0  0  0  0  0  0  0  0  0
  -35.4690  -23.5120    0.6570 H   0  0  0  0  0  0  0  0  0  0  0  0
  -36.3394  -20.7976    1.5338 H   0  0  0  0  0  0  0  0  0  0  0  0
  -36.3989  -22.3157    2.5024 H   0  0  0  0  0  0  0  0  0  0  0  0
  -34.4866  -20.8452    3.0707 H   0  0  0  0  0  0  0  0  0  0  0  0
  -33.7746  -22.8572    3.7957 H   0  0  0  0  0  0  0  0  0  0  0  0
  -34.2278  -23.6909    2.2807 H   0  0  0  0  0  0  0  0  0  0  0  0
  -32.4388  -23.7156    4.6262 H   0  0  0  0  0  0  0  0  0  0  0  0
  -30.8550  -23.2293    6.5121 H   0  0  0  0  0  0  0  0  0  0  0  0
  -30.2313  -21.0146    2.0405 H   0  0  0  0  0  0  0  0  0  0  0  0
  -26.9354  -20.9067    5.3814 H   0  0  0  0  0  0  0  0  0  0  0  0
  -28.0745  -19.5723    5.8827 H   0  0  0  0  0  0  0  0  0  0  0  0
  -32.9171  -19.1381   -0.9122 H   0  0  0  0  0  0  0  0  0  0  0  0
  -33.3072  -16.6884   -1.1178 H   0  0  0  0  0  0  0  0  0  0  0  0
  1  2  1  0
  2  3  1  0
  3  4  2  0
  4  5  1  0
  5  6  1  0
  6  7  1  0
  7  8  1  0
  8  9  1  0
  9 10  1  0
 10 11  1  0
 11 12  1  0
 12 13  1  0
 13 14  1  0
 14 15  1  0
 15 16  2  0
 16 17  1  0
 17 18  2  0
 18 19  1  0
 18 20  1  0
 20 21  1  0
 21 22  1  0
  5 23  2  0
 23 24  1  0
 24  2  2  0
 11  6  1  0
 19 14  2  0
 22 17  1  0
  3 25  1  0
  4 26  1  0
  6 27  1  1
  7 28  1  0
  7 29  1  0
  8 30  1  0
  8 31  1  0
  9 32  1  0
  9 33  1  0
 10 34  1  0
 10 35  1  0
 11 36  1  1
 12 37  1  0
 12 38  1  0
 15 39  1  0
 16 40  1  0
 19 41  1  0
 21 42  1  0
 21 43  1  0
 23 44  1  0
 24 45  1  0
M  CHG  1   9   1
M  END
>  <meeko>  (1) 
{"is_sidechain": false}

>  <vina_kcal_mol>  (1) 
-10.106

$$$$
