serotonina
     RDKit          3D

 26 27  0  0  0  0  0  0  0  0999 V2000
  -34.4390  -24.4050    2.0210 N   0  0  0  0  0  0  0  0  0  0  0  0
  -33.2260  -23.5420    1.9980 C   0  0  0  0  0  0  0  0  0  0  0  0
  -32.7730  -23.2300    3.4220 C   0  0  0  0  0  0  0  0  0  0  0  0
  -31.5340  -22.4030    3.4300 C   0  0  0  0  0  0  0  0  0  0  0  0
  -31.0210  -21.6740    2.3750 C   0  0  0  0  0  0  0  0  0  0  0  0
  -29.8730  -21.0550    2.7960 N   0  0  0  0  0  0  0  0  0  0  0  0
  -29.6310  -21.3540    4.1160 C   0  0  0  0  0  0  0  0  0  0  0  0
  -28.5890  -20.9400    4.9560 C   0  0  0  0  0  0  0  0  0  0  0  0
  -28.5870  -21.4120    6.2730 C   0  0  0  0  0  0  0  0  0  0  0  0
  -29.5900  -22.2670    6.7120 C   0  0  0  0  0  0  0  0  0  0  0  0
  -29.6110  -22.7420    7.9910 O   0  0  0  0  0  0  0  0  0  0  0  0
  -30.6230  -22.6780    5.8680 C   0  0  0  0  0  0  0  0  0  0  0  0
  -30.6480  -22.2080    4.5400 C   0  0  0  0  0  0  0  0  0  0  0  0
  -35.2200  -23.9780    1.5050 H   0  0  0  0  0  0  0  0  0  0  0  0
  -34.7560  -24.5580    2.9860 H   0  0  0  0  0  0  0  0  0  0  0  0
  -34.2540  -25.3290    1.6090 H   0  0  0  0  0  0  0  0  0  0  0  0
  -32.4178  -24.0655    1.4662 H   0  0  0  0  0  0  0  0  0  0  0  0
  -33.4659  -22.5998    1.4835 H   0  0  0  0  0  0  0  0  0  0  0  0
  -33.5731  -22.6807    3.9397 H   0  0  0  0  0  0  0  0  0  0  0  0
  -32.5579  -24.1803    3.9326 H   0  0  0  0  0  0  0  0  0  0  0  0
  -31.4591  -21.6024    1.3686 H   0  0  0  0  0  0  0  0  0  0  0  0
  -29.2810  -20.4650    2.2240 H   0  0  0  0  0  0  0  0  0  0  0  0
  -27.7990  -20.2665    4.5923 H   0  0  0  0  0  0  0  0  0  0  0  0
  -27.7879  -21.1048    6.9637 H   0  0  0  0  0  0  0  0  0  0  0  0
  -29.7960  -22.0030    8.5960 H   0  0  0  0  0  0  0  0  0  0  0  0
  -31.4058  -23.3586    6.2342 H   0  0  0  0  0  0  0  0  0  0  0  0
  1  2  1  0
  2  3  1  0
  3  4  1  0
  4  5  2  0
  5  6  1  0
  6  7  1  0
  7  8  2  0
  8  9  1  0
  9 10  2  0
 10 11  1  0
 10 12  1  0
 12 13  2  0
 13  4  1  0
 13  7  1  0
  1 14  1  0
  1 15  1  0
  1 16  1  0
  2 17  1  0
  2 18  1  0
  3 19  1  0
  3 20  1  0
  5 21  1  0
  6 22  1  0
  8 23  1  0
  9 24  1  0
 11 25  1  0
 12 26  1  0
M  CHG  1   1   1
M  END
>  <meeko>  (1) 
{"is_sidechain": false}

>  <vina_kcal_mol>  (1) 
-6.926

$$$$
