sertralina
     RDKit          3D

 38 40  0  0  0  0  0  0  0  0999 V2000
  -35.8420  -21.3740    3.2270 C   0  0  0  0  0  0  0  0  0  0  0  0
  -35.1740  -22.7010    3.2670 N   0  0  0  0  0  0  0  0  0  0  0  0
  -34.1010  -22.9400    2.2300 C   0  0  1  0  0  0  0  0  0  0  0  0
  -34.5670  -22.2940    0.9140 C   0  0  0  0  0  0  0  0  0  0  0  0
  -33.4010  -21.9560   -0.0080 C   0  0  0  0  0  0  0  0  0  0  0  0
  -32.4350  -20.9620    0.6650 C   0  0  1  0  0  0  0  0  0  0  0  0
  -33.0270  -19.5530    0.7230 C   0  0  0  0  0  0  0  0  0  0  0  0
  -32.7750  -18.6660   -0.3360 C   0  0  0  0  0  0  0  0  0  0  0  0
  -33.3190  -17.3780   -0.3430 C   0  0  0  0  0  0  0  0  0  0  0  0
  -34.1300  -16.9490    0.7100 C   0  0  0  0  0  0  0  0  0  0  0  0
  -34.7860  -15.3550    0.6300 Cl  0  0  0  0  0  0  0  0  0  0  0  0
  -34.3860  -17.8140    1.7750 C   0  0  0  0  0  0  0  0  0  0  0  0
  -35.3940  -17.3780    3.1090 Cl  0  0  0  0  0  0  0  0  0  0  0  0
  -33.8340  -19.1020    1.7820 C   0  0  0  0  0  0  0  0  0  0  0  0
  -31.9780  -21.5210    2.0060 C   0  0  0  0  0  0  0  0  0  0  0  0
  -30.7420  -21.0930    2.5240 C   0  0  0  0  0  0  0  0  0  0  0  0
  -30.2580  -21.6010    3.7250 C   0  0  0  0  0  0  0  0  0  0  0  0
  -30.9920  -22.5540    4.4200 C   0  0  0  0  0  0  0  0  0  0  0  0
  -32.2220  -22.9850    3.9240 C   0  0  0  0  0  0  0  0  0  0  0  0
  -32.7520  -22.4550    2.7300 C   0  0  0  0  0  0  0  0  0  0  0  0
  -36.0194  -21.0217    4.2538 H   0  0  0  0  0  0  0  0  0  0  0  0
  -35.1983  -20.6552    2.6988 H   0  0  0  0  0  0  0  0  0  0  0  0
  -36.8028  -21.4629    2.6988 H   0  0  0  0  0  0  0  0  0  0  0  0
  -35.8960  -23.4220    3.1640 H   0  0  0  0  0  0  0  0  0  0  0  0
  -34.7740  -22.8650    4.2000 H   0  0  0  0  0  0  0  0  0  0  0  0
  -33.9523  -24.0130    2.0387 H   0  0  0  0  0  0  0  0  0  0  0  0
  -35.2378  -22.9939    0.3943 H   0  0  0  0  0  0  0  0  0  0  0  0
  -35.0824  -21.3548    1.1636 H   0  0  0  0  0  0  0  0  0  0  0  0
  -32.8551  -22.8796   -0.2510 H   0  0  0  0  0  0  0  0  0  0  0  0
  -33.8001  -21.4924   -0.9222 H   0  0  0  0  0  0  0  0  0  0  0  0
  -31.5281  -20.8466    0.0532 H   0  0  0  0  0  0  0  0  0  0  0  0
  -32.1395  -18.9896   -1.1735 H   0  0  0  0  0  0  0  0  0  0  0  0
  -33.1071  -16.6991   -1.1822 H   0  0  0  0  0  0  0  0  0  0  0  0
  -34.0357  -19.7718    2.6309 H   0  0  0  0  0  0  0  0  0  0  0  0
  -30.1509  -20.3472    1.9723 H   0  0  0  0  0  0  0  0  0  0  0  0
  -29.2954  -21.2486    4.1239 H   0  0  0  0  0  0  0  0  0  0  0  0
  -30.6029  -22.9687    5.3616 H   0  0  0  0  0  0  0  0  0  0  0  0
  -32.7882  -23.7514    4.4736 H   0  0  0  0  0  0  0  0  0  0  0  0
  1  2  1  0
  2  3  1  0
  3  4  1  0
  4  5  1  0
  5  6  1  0
  6  7  1  0
  7  8  1  0
  8  9  2  0
  9 10  1  0
 10 11  1  0
 10 12  2  0
 12 13  1  0
 12 14  1  0
  6 15  1  0
 15 16  2  0
 16 17  1  0
 17 18  2  0
 18 19  1  0
 19 20  2  0
 20  3  1  0
 14  7  2  0
 20 15  1  0
  1 21  1  0
  1 22  1  0
  1 23  1  0
  2 24  1  0
  2 25  1  0
  3 26  1  6
  4 27  1  0
  4 28  1  0
  5 29  1  0
  5 30  1  0
  6 31  1  6
  8 32  1  0
  9 33  1  0
 14 34  1  0
 16 35  1  0
 17 36  1  0
 18 37  1  0
 19 38  1  0
M  CHG  1   2   1
M  END
>  <meeko>  (1) 
{"is_sidechain": false}

>  <vina_kcal_mol>  (1) 
-8.951

$$$$
