pose 1
     RDKit          3D

 43 45  0  0  0  0  0  0  0  0999 V2000
   14.9340   33.2580   17.6300 C   0  0  0  0  0  0  0  0  0  0  0  0
   14.9940   33.4260   19.1220 N   0  0  0  0  0  0  0  0  0  0  0  0
   15.2920   32.1380   19.8340 C   0  0  0  0  0  0  0  0  0  0  0  0
   15.8080   34.6140   19.5960 C   0  0  0  0  0  0  0  0  0  0  0  0
   15.1540   35.4830   20.6780 C   0  0  0  0  0  0  0  0  0  0  0  0
   15.8030   35.4540   22.0380 C   0  0  0  0  0  0  0  0  0  0  0  0
   16.9100   36.1210   22.4430 C   0  0  0  0  0  0  0  0  0  0  0  0
   17.6400   36.9920   21.4980 C   0  0  0  0  0  0  0  0  0  0  0  0
   18.4080   36.4770   20.4470 C   0  0  0  0  0  0  0  0  0  0  0  0
   19.0810   37.3420   19.5840 C   0  0  0  0  0  0  0  0  0  0  0  0
   19.0040   38.7200   19.7770 C   0  0  0  0  0  0  0  0  0  0  0  0
   18.2680   39.2390   20.8440 C   0  0  0  0  0  0  0  0  0  0  0  0
   17.5870   38.3780   21.7130 C   0  0  0  0  0  0  0  0  0  0  0  0
   16.8370   38.9000   22.9130 C   0  0  0  0  0  0  0  0  0  0  0  0
   17.5210   38.6050   24.1280 O   0  0  0  0  0  0  0  0  0  0  0  0
   17.5140   37.3180   24.6060 C   0  0  0  0  0  0  0  0  0  0  0  0
   17.8730   37.2480   25.9610 C   0  0  0  0  0  0  0  0  0  0  0  0
   17.9510   36.0250   26.6240 C   0  0  0  0  0  0  0  0  0  0  0  0
   17.6850   34.8490   25.9330 C   0  0  0  0  0  0  0  0  0  0  0  0
   17.3400   34.9020   24.5800 C   0  0  0  0  0  0  0  0  0  0  0  0
   17.2360   36.1320   23.8970 C   0  0  0  0  0  0  0  0  0  0  0  0
   14.5730   32.2472   17.3891 H   0  0  0  0  0  0  0  0  0  0  0  0
   14.2467   34.0040   17.2044 H   0  0  0  0  0  0  0  0  0  0  0  0
   15.9384   33.3998   17.2044 H   0  0  0  0  0  0  0  0  0  0  0  0
   14.0300   33.6630   19.3900 H   0  0  0  0  0  0  0  0  0  0  0  0
   15.2539   32.3026   20.9209 H   0  0  0  0  0  0  0  0  0  0  0  0
   14.5452   31.3815   19.5513 H   0  0  0  0  0  0  0  0  0  0  0  0
   16.2952   31.7864   19.5513 H   0  0  0  0  0  0  0  0  0  0  0  0
   16.7584   34.2330   19.9980 H   0  0  0  0  0  0  0  0  0  0  0  0
   15.9229   35.2666   18.7180 H   0  0  0  0  0  0  0  0  0  0  0  0
   15.1642   36.5243   20.3235 H   0  0  0  0  0  0  0  0  0  0  0  0
   14.1475   35.0636   20.8234 H   0  0  0  0  0  0  0  0  0  0  0  0
   15.3199   34.8148   22.7916 H   0  0  0  0  0  0  0  0  0  0  0  0
   18.4809   35.3891   20.3015 H   0  0  0  0  0  0  0  0  0  0  0  0
   19.6730   36.9361   18.7505 H   0  0  0  0  0  0  0  0  0  0  0  0
   19.5244   39.4005   19.0870 H   0  0  0  0  0  0  0  0  0  0  0  0
   18.2231   40.3266   21.0022 H   0  0  0  0  0  0  0  0  0  0  0  0
   16.7291   39.9907   22.8198 H   0  0  0  0  0  0  0  0  0  0  0  0
   15.8531   38.4092   22.9441 H   0  0  0  0  0  0  0  0  0  0  0  0
   18.0967   38.1750   26.5092 H   0  0  0  0  0  0  0  0  0  0  0  0
   18.2219   35.9905   27.6896 H   0  0  0  0  0  0  0  0  0  0  0  0
   17.7458   33.8797   26.4494 H   0  0  0  0  0  0  0  0  0  0  0  0
   17.1456   33.9657   24.0364 H   0  0  0  0  0  0  0  0  0  0  0  0
  1  2  1  0
  2  3  1  0
  2  4  1  0
  4  5  1  0
  5  6  1  0
  6  7  2  0
  7  8  1  0
  8  9  2  0
  9 10  1  0
 10 11  2  0
 11 12  1  0
 12 13  2  0
 13 14  1  0
 14 15  1  0
 15 16  1  0
 16 17  2  0
 17 18  1  0
 18 19  2  0
 19 20  1  0
 20 21  2  0
 21  7  1  0
 13  8  1  0
 21 16  1  0
  1 22  1  0
  1 23  1  0
  1 24  1  0
  2 25  1  0
  3 26  1  0
  3 27  1  0
  3 28  1  0
  4 29  1  0
  4 30  1  0
  5 31  1  0
  5 32  1  0
  6 33  1  0
  9 34  1  0
 10 35  1  0
 11 36  1  0
 12 37  1  0
 14 38  1  0
 14 39  1  0
 17 40  1  0
 18 41  1  0
 19 42  1  0
 20 43  1  0
M  CHG  1   2   1
M  END
>  <meeko>  (1) 
{"is_sidechain": false}

>  <vina_kcal_mol>  (1) 
-11.387

>  <rmsd_cristal>  (1) 
0.51

$$$$
