doxepina (3RZE/5EH)
     RDKit          3D

 43 45  0  0  0  0  0  0  0  0999 V2000
   14.5690   31.7550   20.3780 C   0  0  0  0  0  0  0  0  0  0  0  0
   14.5250   32.9430   19.5120 N   0  0  0  0  0  0  0  0  0  0  0  0
   14.4520   32.5110   18.1060 C   0  0  0  0  0  0  0  0  0  0  0  0
   15.7300   33.7650   19.7240 C   0  0  0  0  0  0  0  0  0  0  0  0
   15.3640   35.1380   20.2800 C   0  0  0  0  0  0  0  0  0  0  0  0
   15.7730   35.2110   21.7340 C   0  0  0  0  0  0  0  0  0  0  0  0
   16.7510   36.0140   22.1950 C   0  0  0  0  0  0  0  0  0  0  0  0
   17.5260   36.9430   21.3110 C   0  0  0  0  0  0  0  0  0  0  0  0
   18.4200   36.4730   20.3470 C   0  0  0  0  0  0  0  0  0  0  0  0
   19.1490   37.3840   19.5800 C   0  0  0  0  0  0  0  0  0  0  0  0
   18.9970   38.7570   19.7930 C   0  0  0  0  0  0  0  0  0  0  0  0
   18.1190   39.2180   20.7750 C   0  0  0  0  0  0  0  0  0  0  0  0
   17.3920   38.3030   21.5370 C   0  0  0  0  0  0  0  0  0  0  0  0
   16.4260   38.7620   22.6050 C   0  0  0  0  0  0  0  0  0  0  0  0
   16.9620   38.4680   23.8940 O   0  0  0  0  0  0  0  0  0  0  0  0
   17.1760   37.2050   24.4050 C   0  0  0  0  0  0  0  0  0  0  0  0
   17.5170   37.1340   25.7580 C   0  0  0  0  0  0  0  0  0  0  0  0
   17.7700   35.9080   26.3730 C   0  0  0  0  0  0  0  0  0  0  0  0
   17.6860   34.7330   25.6300 C   0  0  0  0  0  0  0  0  0  0  0  0
   17.3500   34.7960   24.2790 C   0  0  0  0  0  0  0  0  0  0  0  0
   17.0920   36.0210   23.6590 C   0  0  0  0  0  0  0  0  0  0  0  0
   14.5574   32.0691   21.4322 H   0  0  0  0  0  0  0  0  0  0  0  0
   13.6937   31.1205   20.1748 H   0  0  0  0  0  0  0  0  0  0  0  0
   15.4888   31.1870   20.1748 H   0  0  0  0  0  0  0  0  0  0  0  0
   13.6954   33.5080   19.7429 H   0  0  0  0  0  0  0  0  0  0  0  0
   14.2688   31.4271   18.0645 H   0  0  0  0  0  0  0  0  0  0  0  0
   13.6307   33.0412   17.6017 H   0  0  0  0  0  0  0  0  0  0  0  0
   15.4019   32.7419   17.6017 H   0  0  0  0  0  0  0  0  0  0  0  0
   16.3937   33.2535   20.4367 H   0  0  0  0  0  0  0  0  0  0  0  0
   16.2357   33.9018   18.7568 H   0  0  0  0  0  0  0  0  0  0  0  0
   15.8904   35.9179   19.7102 H   0  0  0  0  0  0  0  0  0  0  0  0
   14.2787   35.2945   20.1932 H   0  0  0  0  0  0  0  0  0  0  0  0
   15.2421   34.5726   22.4555 H   0  0  0  0  0  0  0  0  0  0  0  0
   18.5492   35.3916   20.1927 H   0  0  0  0  0  0  0  0  0  0  0  0
   19.8432   37.0210   18.8078 H   0  0  0  0  0  0  0  0  0  0  0  0
   19.5695   39.4743   19.1866 H   0  0  0  0  0  0  0  0  0  0  0  0
   18.0007   40.2979   20.9474 H   0  0  0  0  0  0  0  0  0  0  0  0
   16.2673   39.8466   22.5133 H   0  0  0  0  0  0  0  0  0  0  0  0
   15.4672   38.2375   22.4799 H   0  0  0  0  0  0  0  0  0  0  0  0
   17.5871   38.0599   26.3477 H   0  0  0  0  0  0  0  0  0  0  0  0
   18.0347   35.8693   27.4400 H   0  0  0  0  0  0  0  0  0  0  0  0
   17.8836   33.7615   26.1065 H   0  0  0  0  0  0  0  0  0  0  0  0
   17.2870   33.8677   23.6923 H   0  0  0  0  0  0  0  0  0  0  0  0
  2  1  1  0
  3  2  1  0
  4  2  1  0
  5  4  1  0
  6  5  1  0
  7  6  2  0
  8  7  1  0
  9  8  2  0
 10  9  1  0
 11 10  2  0
 12 11  1  0
 13  8  1  0
 13 12  2  0
 14 13  1  0
 15 14  1  0
 16 15  1  0
 17 16  2  0
 18 17  1  0
 19 18  2  0
 20 19  1  0
 21 20  2  0
 21 16  1  0
 21  7  1  0
  1 22  1  0
  1 23  1  0
  1 24  1  0
  2 25  1  0
  3 26  1  0
  3 27  1  0
  3 28  1  0
  4 29  1  0
  4 30  1  0
  5 31  1  0
  5 32  1  0
  6 33  1  0
  9 34  1  0
 10 35  1  0
 11 36  1  0
 12 37  1  0
 14 38  1  0
 14 39  1  0
 17 40  1  0
 18 41  1  0
 19 42  1  0
 20 43  1  0
M  CHG  1   2   1
M  END
$$$$
