pose 1
     RDKit          3D

 40 42  0  0  0  0  0  0  0  0999 V2000
   31.6890  -24.7750  -11.3510 C   0  0  0  0  0  0  0  0  0  0  0  0
   31.8730  -24.1510  -12.7030 C   0  0  0  0  0  0  0  0  0  0  0  0
   32.6270  -24.7990  -13.6870 C   0  0  0  0  0  0  0  0  0  0  0  0
   32.8240  -24.2030  -14.9370 C   0  0  0  0  0  0  0  0  0  0  0  0
   32.2680  -22.9500  -15.2170 C   0  0  0  0  0  0  0  0  0  0  0  0
   32.4870  -22.3240  -16.5180 C   0  0  0  0  0  0  0  0  0  0  0  0
   33.7000  -22.1630  -17.1610 C   0  0  0  0  0  0  0  0  0  0  0  0
   33.4490  -21.3570  -18.2910 C   0  0  0  0  0  0  0  0  0  0  0  0
   34.4630  -20.8650  -19.2870 C   0  0  0  0  0  0  0  0  0  0  0  0
   34.5830  -19.5110  -19.2750 F   0  0  0  0  0  0  0  0  0  0  0  0
   34.1660  -21.2270  -20.5620 F   0  0  0  0  0  0  0  0  0  0  0  0
   35.7050  -21.3610  -19.0280 F   0  0  0  0  0  0  0  0  0  0  0  0
   32.1470  -21.0350  -18.3580 N   0  0  0  0  0  0  0  0  0  0  0  0
   31.5410  -21.6940  -17.3270 N   0  0  0  0  0  0  0  0  0  0  0  0
   30.1100  -21.6600  -17.2460 C   0  0  0  0  0  0  0  0  0  0  0  0
   29.3710  -22.6490  -16.5820 C   0  0  0  0  0  0  0  0  0  0  0  0
   27.9730  -22.5760  -16.5300 C   0  0  0  0  0  0  0  0  0  0  0  0
   27.3080  -21.5230  -17.1600 C   0  0  0  0  0  0  0  0  0  0  0  0
   25.5460  -21.4150  -17.0650 S   0  0  0  0  0  0  0  0  0  0  0  0
   25.0880  -21.8340  -18.6250 N   0  0  0  0  0  0  0  0  0  0  0  0
   25.1620  -20.0330  -16.8930 O   0  0  0  0  0  0  0  0  0  0  0  0
   25.0500  -22.4690  -16.2100 O   0  0  0  0  0  0  0  0  0  0  0  0
   28.0260  -20.5350  -17.8330 C   0  0  0  0  0  0  0  0  0  0  0  0
   29.4210  -20.6100  -17.8830 C   0  0  0  0  0  0  0  0  0  0  0  0
   31.5420  -22.2860  -14.2210 C   0  0  0  0  0  0  0  0  0  0  0  0
   31.3450  -22.8830  -12.9740 C   0  0  0  0  0  0  0  0  0  0  0  0
   31.9083  -24.0311  -10.5709 H   0  0  0  0  0  0  0  0  0  0  0  0
   30.6504  -25.1217  -11.2454 H   0  0  0  0  0  0  0  0  0  0  0  0
   32.3733  -25.6297  -11.2454 H   0  0  0  0  0  0  0  0  0  0  0  0
   33.0682  -25.7844  -13.4763 H   0  0  0  0  0  0  0  0  0  0  0  0
   33.4187  -24.7217  -15.7033 H   0  0  0  0  0  0  0  0  0  0  0  0
   34.6696  -22.5809  -16.8524 H   0  0  0  0  0  0  0  0  0  0  0  0
   29.8925  -23.4882  -16.0985 H   0  0  0  0  0  0  0  0  0  0  0  0
   27.4005  -23.3471  -15.9937 H   0  0  0  0  0  0  0  0  0  0  0  0
   25.6680  -21.3360  -19.3020 H   0  0  0  0  0  0  0  0  0  0  0  0
   24.0870  -21.6780  -18.7480 H   0  0  0  0  0  0  0  0  0  0  0  0
   27.4983  -19.7024  -18.3212 H   0  0  0  0  0  0  0  0  0  0  0  0
   29.9874  -19.8394  -18.4265 H   0  0  0  0  0  0  0  0  0  0  0  0
   31.1244  -21.2884  -14.4218 H   0  0  0  0  0  0  0  0  0  0  0  0
   30.7710  -22.3533  -12.1994 H   0  0  0  0  0  0  0  0  0  0  0  0
  1  2  1  0
  2  3  1  0
  3  4  2  0
  4  5  1  0
  5  6  1  0
  6  7  2  0
  7  8  1  0
  8  9  1  0
  9 10  1  0
  9 11  1  0
  9 12  1  0
  8 13  2  0
 13 14  1  0
 14 15  1  0
 15 16  1  0
 16 17  2  0
 17 18  1  0
 18 19  1  0
 19 20  1  0
 19 21  2  0
 19 22  2  0
 18 23  2  0
 23 24  1  0
  5 25  2  0
 25 26  1  0
 26  2  2  0
 14  6  1  0
 24 15  2  0
  1 27  1  0
  1 28  1  0
  1 29  1  0
  3 30  1  0
  4 31  1  0
  7 32  1  0
 16 33  1  0
 17 34  1  0
 20 35  1  0
 20 36  1  0
 23 37  1  0
 24 38  1  0
 25 39  1  0
 26 40  1  0
M  END
>  <meeko>  (1) 
{"is_sidechain": false}

>  <vina_kcal_mol>  (1) 
-12.07

>  <rmsd_cristal>  (1) 
0.48

$$$$
pose 2
     RDKit          3D

 40 42  0  0  0  0  0  0  0  0999 V2000
   33.3420  -26.0120  -13.3760 C   0  0  0  0  0  0  0  0  0  0  0  0
   32.3330  -25.1570  -14.0860 C   0  0  0  0  0  0  0  0  0  0  0  0
   32.4310  -24.9410  -15.4640 C   0  0  0  0  0  0  0  0  0  0  0  0
   31.5090  -24.1190  -16.1200 C   0  0  0  0  0  0  0  0  0  0  0  0
   30.4770  -23.5030  -15.4040 C   0  0  0  0  0  0  0  0  0  0  0  0
   29.5240  -22.6340  -16.0890 C   0  0  0  0  0  0  0  0  0  0  0  0
   28.1520  -22.6240  -15.9230 C   0  0  0  0  0  0  0  0  0  0  0  0
   27.6380  -21.7580  -16.9100 C   0  0  0  0  0  0  0  0  0  0  0  0
   26.1870  -21.4480  -17.1670 C   0  0  0  0  0  0  0  0  0  0  0  0
   25.8100  -21.7600  -18.4350 F   0  0  0  0  0  0  0  0  0  0  0  0
   25.8880  -20.1380  -16.9730 F   0  0  0  0  0  0  0  0  0  0  0  0
   25.3680  -22.1540  -16.3390 F   0  0  0  0  0  0  0  0  0  0  0  0
   28.6330  -21.2470  -17.6530 N   0  0  0  0  0  0  0  0  0  0  0  0
   29.7920  -21.7100  -17.1000 N   0  0  0  0  0  0  0  0  0  0  0  0
   31.0350  -21.1970  -17.5960 C   0  0  0  0  0  0  0  0  0  0  0  0
   31.6170  -20.0240  -17.0950 C   0  0  0  0  0  0  0  0  0  0  0  0
   32.8330  -19.5580  -17.6120 C   0  0  0  0  0  0  0  0  0  0  0  0
   33.4600  -20.2520  -18.6470 C   0  0  0  0  0  0  0  0  0  0  0  0
   35.0110  -19.6810  -19.2760 S   0  0  0  0  0  0  0  0  0  0  0  0
   34.5470  -18.3470  -20.1840 N   0  0  0  0  0  0  0  0  0  0  0  0
   35.5280  -20.6460  -20.2190 O   0  0  0  0  0  0  0  0  0  0  0  0
   35.8040  -19.1610  -18.1860 O   0  0  0  0  0  0  0  0  0  0  0  0
   32.8920  -21.4160  -19.1640 C   0  0  0  0  0  0  0  0  0  0  0  0
   31.6780  -21.8790  -18.6460 C   0  0  0  0  0  0  0  0  0  0  0  0
   30.3990  -23.6920  -14.0190 C   0  0  0  0  0  0  0  0  0  0  0  0
   31.3190  -24.5140  -13.3650 C   0  0  0  0  0  0  0  0  0  0  0  0
   33.2142  -25.9037  -12.2888 H   0  0  0  0  0  0  0  0  0  0  0  0
   33.1950  -27.0646  -13.6594 H   0  0  0  0  0  0  0  0  0  0  0  0
   34.3562  -25.6942  -13.6594 H   0  0  0  0  0  0  0  0  0  0  0  0
   33.2388  -25.4209  -16.0360 H   0  0  0  0  0  0  0  0  0  0  0  0
   31.5957  -23.9560  -17.2044 H   0  0  0  0  0  0  0  0  0  0  0  0
   27.5752  -23.1812  -15.1701 H   0  0  0  0  0  0  0  0  0  0  0  0
   31.1156  -19.4658  -16.2906 H   0  0  0  0  0  0  0  0  0  0  0  0
   33.2925  -18.6464  -17.2024 H   0  0  0  0  0  0  0  0  0  0  0  0
   33.7670  -17.8720  -19.7280 H   0  0  0  0  0  0  0  0  0  0  0  0
   34.3530  -18.6300  -21.1440 H   0  0  0  0  0  0  0  0  0  0  0  0
   33.3949  -21.9659  -19.9731 H   0  0  0  0  0  0  0  0  0  0  0  0
   31.2201  -22.7874  -19.0644 H   0  0  0  0  0  0  0  0  0  0  0  0
   29.6081  -23.1899  -13.4425 H   0  0  0  0  0  0  0  0  0  0  0  0
   31.2469  -24.6574  -12.2768 H   0  0  0  0  0  0  0  0  0  0  0  0
  1  2  1  0
  2  3  1  0
  3  4  2  0
  4  5  1  0
  5  6  1  0
  6  7  2  0
  7  8  1  0
  8  9  1  0
  9 10  1  0
  9 11  1  0
  9 12  1  0
  8 13  2  0
 13 14  1  0
 14 15  1  0
 15 16  1  0
 16 17  2  0
 17 18  1  0
 18 19  1  0
 19 20  1  0
 19 21  2  0
 19 22  2  0
 18 23  2  0
 23 24  1  0
  5 25  2  0
 25 26  1  0
 26  2  2  0
 14  6  1  0
 24 15  2  0
  1 27  1  0
  1 28  1  0
  1 29  1  0
  3 30  1  0
  4 31  1  0
  7 32  1  0
 16 33  1  0
 17 34  1  0
 20 35  1  0
 20 36  1  0
 23 37  1  0
 24 38  1  0
 25 39  1  0
 26 40  1  0
M  END
>  <meeko>  (2) 
{"is_sidechain": false}

>  <vina_kcal_mol>  (2) 
-10.513

>  <rmsd_cristal>  (2) 
6.16

$$$$
pose 3
     RDKit          3D

 40 42  0  0  0  0  0  0  0  0999 V2000
   35.0670  -19.9370  -19.0740 C   0  0  0  0  0  0  0  0  0  0  0  0
   33.6660  -20.2930  -18.6710 C   0  0  0  0  0  0  0  0  0  0  0  0
   32.9820  -19.5240  -17.7240 C   0  0  0  0  0  0  0  0  0  0  0  0
   31.6880  -19.8740  -17.3270 C   0  0  0  0  0  0  0  0  0  0  0  0
   31.0610  -20.9990  -17.8740 C   0  0  0  0  0  0  0  0  0  0  0  0
   29.7150  -21.3700  -17.4470 C   0  0  0  0  0  0  0  0  0  0  0  0
   28.5260  -20.9360  -18.0030 C   0  0  0  0  0  0  0  0  0  0  0  0
   27.4970  -21.4070  -17.1610 C   0  0  0  0  0  0  0  0  0  0  0  0
   26.0210  -21.1560  -17.3190 C   0  0  0  0  0  0  0  0  0  0  0  0
   25.5670  -21.5140  -18.5490 F   0  0  0  0  0  0  0  0  0  0  0  0
   25.6880  -19.8530  -17.1340 F   0  0  0  0  0  0  0  0  0  0  0  0
   25.2900  -21.8710  -16.4190 F   0  0  0  0  0  0  0  0  0  0  0  0
   28.0110  -22.1040  -16.1360 N   0  0  0  0  0  0  0  0  0  0  0  0
   29.3580  -22.1590  -16.3530 N   0  0  0  0  0  0  0  0  0  0  0  0
   30.1530  -22.9830  -15.4910 C   0  0  0  0  0  0  0  0  0  0  0  0
   31.0370  -23.9520  -15.9840 C   0  0  0  0  0  0  0  0  0  0  0  0
   31.7940  -24.7360  -15.1030 C   0  0  0  0  0  0  0  0  0  0  0  0
   31.6520  -24.5680  -13.7250 C   0  0  0  0  0  0  0  0  0  0  0  0
   32.6310  -25.5360  -12.6160 S   0  0  0  0  0  0  0  0  0  0  0  0
   34.1000  -24.7230  -12.6500 N   0  0  0  0  0  0  0  0  0  0  0  0
   32.8770  -26.8320  -13.2040 O   0  0  0  0  0  0  0  0  0  0  0  0
   32.1230  -25.3780  -11.2720 O   0  0  0  0  0  0  0  0  0  0  0  0
   30.7710  -23.6140  -13.2160 C   0  0  0  0  0  0  0  0  0  0  0  0
   30.0170  -22.8330  -14.0980 C   0  0  0  0  0  0  0  0  0  0  0  0
   31.7570  -21.7880  -18.7980 C   0  0  0  0  0  0  0  0  0  0  0  0
   33.0490  -21.4360  -19.1940 C   0  0  0  0  0  0  0  0  0  0  0  0
   35.6792  -19.7814  -18.1735 H   0  0  0  0  0  0  0  0  0  0  0  0
   35.4955  -20.7548  -19.6720 H   0  0  0  0  0  0  0  0  0  0  0  0
   35.0532  -19.0138  -19.6720 H   0  0  0  0  0  0  0  0  0  0  0  0
   33.4657  -18.6373  -17.2883 H   0  0  0  0  0  0  0  0  0  0  0  0
   31.1601  -19.2619  -16.5809 H   0  0  0  0  0  0  0  0  0  0  0  0
   28.4061  -20.3411  -18.9205 H   0  0  0  0  0  0  0  0  0  0  0  0
   31.1374  -24.0982  -17.0696 H   0  0  0  0  0  0  0  0  0  0  0  0
   32.4991  -25.4827  -15.4971 H   0  0  0  0  0  0  0  0  0  0  0  0
   34.0800  -23.9440  -11.9900 H   0  0  0  0  0  0  0  0  0  0  0  0
   34.3230  -24.4480  -13.6060 H   0  0  0  0  0  0  0  0  0  0  0  0
   30.6699  -23.4769  -12.1293 H   0  0  0  0  0  0  0  0  0  0  0  0
   29.3089  -22.0923  -13.6981 H   0  0  0  0  0  0  0  0  0  0  0  0
   31.2836  -22.6896  -19.2140 H   0  0  0  0  0  0  0  0  0  0  0  0
   33.5861  -22.0614  -19.9223 H   0  0  0  0  0  0  0  0  0  0  0  0
  1  2  1  0
  2  3  1  0
  3  4  2  0
  4  5  1  0
  5  6  1  0
  6  7  2  0
  7  8  1  0
  8  9  1  0
  9 10  1  0
  9 11  1  0
  9 12  1  0
  8 13  2  0
 13 14  1  0
 14 15  1  0
 15 16  1  0
 16 17  2  0
 17 18  1  0
 18 19  1  0
 19 20  1  0
 19 21  2  0
 19 22  2  0
 18 23  2  0
 23 24  1  0
  5 25  2  0
 25 26  1  0
 26  2  2  0
 14  6  1  0
 24 15  2  0
  1 27  1  0
  1 28  1  0
  1 29  1  0
  3 30  1  0
  4 31  1  0
  7 32  1  0
 16 33  1  0
 17 34  1  0
 20 35  1  0
 20 36  1  0
 23 37  1  0
 24 38  1  0
 25 39  1  0
 26 40  1  0
M  END
>  <meeko>  (3) 
{"is_sidechain": false}

>  <vina_kcal_mol>  (3) 
-10.173

>  <rmsd_cristal>  (3) 
6.98

$$$$
pose 4
     RDKit          3D

 40 42  0  0  0  0  0  0  0  0999 V2000
   30.7990  -24.6370  -10.5160 C   0  0  0  0  0  0  0  0  0  0  0  0
   31.2130  -24.1500  -11.8740 C   0  0  0  0  0  0  0  0  0  0  0  0
   30.4820  -23.1480  -12.5220 C   0  0  0  0  0  0  0  0  0  0  0  0
   30.8500  -22.7160  -13.8000 C   0  0  0  0  0  0  0  0  0  0  0  0
   31.9540  -23.2820  -14.4470 C   0  0  0  0  0  0  0  0  0  0  0  0
   32.3270  -22.8390  -15.7870 C   0  0  0  0  0  0  0  0  0  0  0  0
   33.6030  -22.8050  -16.3180 C   0  0  0  0  0  0  0  0  0  0  0  0
   33.5000  -22.1430  -17.5600 C   0  0  0  0  0  0  0  0  0  0  0  0
   34.6290  -21.8190  -18.5010 C   0  0  0  0  0  0  0  0  0  0  0  0
   34.1840  -21.4530  -19.7320 F   0  0  0  0  0  0  0  0  0  0  0  0
   35.4790  -22.8630  -18.6790 F   0  0  0  0  0  0  0  0  0  0  0  0
   35.3850  -20.7830  -18.0430 F   0  0  0  0  0  0  0  0  0  0  0  0
   32.2280  -21.7870  -17.7990 N   0  0  0  0  0  0  0  0  0  0  0  0
   31.4940  -22.2860  -16.7610 N   0  0  0  0  0  0  0  0  0  0  0  0
   30.0660  -22.1920  -16.8300 C   0  0  0  0  0  0  0  0  0  0  0  0
   29.2260  -23.2790  -16.5490 C   0  0  0  0  0  0  0  0  0  0  0  0
   27.8350  -23.1410  -16.6310 C   0  0  0  0  0  0  0  0  0  0  0  0
   27.2780  -21.9210  -17.0180 C   0  0  0  0  0  0  0  0  0  0  0  0
   25.5210  -21.7400  -17.0900 S   0  0  0  0  0  0  0  0  0  0  0  0
   25.3250  -20.1100  -16.7420 N   0  0  0  0  0  0  0  0  0  0  0  0
   24.9220  -22.4590  -15.9900 O   0  0  0  0  0  0  0  0  0  0  0  0
   25.0820  -21.9080  -18.4560 O   0  0  0  0  0  0  0  0  0  0  0  0
   28.0980  -20.8310  -17.3100 C   0  0  0  0  0  0  0  0  0  0  0  0
   29.4870  -20.9720  -17.2260 C   0  0  0  0  0  0  0  0  0  0  0  0
   32.6650  -24.3080  -13.8130 C   0  0  0  0  0  0  0  0  0  0  0  0
   32.2980  -24.7380  -12.5360 C   0  0  0  0  0  0  0  0  0  0  0  0
   31.3056  -24.0410   -9.7426 H   0  0  0  0  0  0  0  0  0  0  0  0
   29.7097  -24.5317  -10.4051 H   0  0  0  0  0  0  0  0  0  0  0  0
   31.0783  -25.6952  -10.4051 H   0  0  0  0  0  0  0  0  0  0  0  0
   29.6118  -22.6971  -12.0225 H   0  0  0  0  0  0  0  0  0  0  0  0
   30.2685  -21.9270  -14.2993 H   0  0  0  0  0  0  0  0  0  0  0  0
   34.5174  -23.2131  -15.8626 H   0  0  0  0  0  0  0  0  0  0  0  0
   29.6628  -24.2469  -16.2621 H   0  0  0  0  0  0  0  0  0  0  0  0
   27.1820  -23.9930  -16.3907 H   0  0  0  0  0  0  0  0  0  0  0  0
   26.1760  -19.7430  -16.3120 H   0  0  0  0  0  0  0  0  0  0  0  0
   24.4870  -19.9730  -16.1770 H   0  0  0  0  0  0  0  0  0  0  0  0
   27.6556  -19.8678  -17.6041 H   0  0  0  0  0  0  0  0  0  0  0  0
   30.1352  -20.1182  -17.4727 H   0  0  0  0  0  0  0  0  0  0  0  0
   33.5181  -24.7784  -14.3239 H   0  0  0  0  0  0  0  0  0  0  0  0
   32.8649  -25.5439  -12.0469 H   0  0  0  0  0  0  0  0  0  0  0  0
  1  2  1  0
  2  3  1  0
  3  4  2  0
  4  5  1  0
  5  6  1  0
  6  7  2  0
  7  8  1  0
  8  9  1  0
  9 10  1  0
  9 11  1  0
  9 12  1  0
  8 13  2  0
 13 14  1  0
 14 15  1  0
 15 16  1  0
 16 17  2  0
 17 18  1  0
 18 19  1  0
 19 20  1  0
 19 21  2  0
 19 22  2  0
 18 23  2  0
 23 24  1  0
  5 25  2  0
 25 26  1  0
 26  2  2  0
 14  6  1  0
 24 15  2  0
  1 27  1  0
  1 28  1  0
  1 29  1  0
  3 30  1  0
  4 31  1  0
  7 32  1  0
 16 33  1  0
 17 34  1  0
 20 35  1  0
 20 36  1  0
 23 37  1  0
 24 38  1  0
 25 39  1  0
 26 40  1  0
M  END
>  <meeko>  (4) 
{"is_sidechain": false}

>  <vina_kcal_mol>  (4) 
-10.139

>  <rmsd_cristal>  (4) 
1.14

$$$$
